<?xml version="1.0" encoding="UTF-8"?>

<net version="1.20" junctionCornerDetail="5" limitTurnSpeed="5.50" xmlns:xsi="http://www.w3.org/2001/XMLSchema-instance" xsi:noNamespaceSchemaLocation="http://sumo.dlr.de/xsd/net_file.xsd">

    <location netOffset="-345234.48,-3455359.81" convBoundary="0.00,0.00,2182.67,2162.32" origBoundary="121.375155,31.222334,121.397846,31.241693" projParameter="+proj=utm +zone=51 +ellps=WGS84 +datum=WGS84 +units=m +no_defs"/>

    <type id="highway.living_street" priority="2" numLanes="1" speed="2.78" disallow="tram rail_urban rail rail_electric rail_fast ship container cable_car subway aircraft wheelchair scooter drone" oneway="0"/>
    <type id="highway.primary" priority="12" numLanes="2" speed="27.78" disallow="tram rail_urban rail rail_electric rail_fast ship container cable_car subway aircraft wheelchair scooter drone" oneway="0"/>
    <type id="highway.residential" priority="3" numLanes="1" speed="13.89" disallow="tram rail_urban rail rail_electric rail_fast ship container cable_car subway aircraft wheelchair scooter drone" oneway="0"/>
    <type id="highway.secondary" priority="11" numLanes="1" speed="27.78" disallow="tram rail_urban rail rail_electric rail_fast ship container cable_car subway aircraft wheelchair scooter drone" oneway="0"/>
    <type id="highway.secondary_link" priority="6" numLanes="1" speed="22.22" disallow="tram rail_urban rail rail_electric rail_fast ship container cable_car subway aircraft wheelchair scooter drone" oneway="0"/>
    <type id="highway.service" priority="1" numLanes="1" speed="5.56" allow="pedestrian delivery bicycle" oneway="0"/>
    <type id="highway.tertiary" priority="10" numLanes="1" speed="22.22" disallow="tram rail_urban rail rail_electric rail_fast ship container cable_car subway aircraft wheelchair scooter drone" oneway="0"/>
    <type id="highway.unclassified" priority="4" numLanes="1" speed="13.89" disallow="tram rail_urban rail rail_electric rail_fast ship container cable_car subway aircraft wheelchair scooter drone" oneway="0"/>

    <edge id=":1078474693_0" function="internal">
        <lane id=":1078474693_0_0" index="0" disallow="tram rail_urban rail rail_electric rail_fast ship container cable_car subway aircraft wheelchair scooter drone" speed="3.65" length="4.67" shape="1385.46,2132.91 1384.06,2132.57 1383.41,2131.96 1383.51,2131.07 1384.36,2129.91"/>
    </edge>
    <edge id=":1078474696_0" function="internal">
        <lane id=":1078474696_0_0" index="0" disallow="tram rail_urban rail rail_electric rail_fast ship container cable_car subway aircraft wheelchair scooter drone" speed="8.34" length="0.24" shape="1782.16,1810.93 1782.11,1811.17"/>
    </edge>
    <edge id=":1078474696_1" function="internal">
        <lane id=":1078474696_1_0" index="0" disallow="tram rail_urban rail rail_electric rail_fast ship container cable_car subway aircraft wheelchair scooter drone" speed="8.34" length="0.31" shape="1778.96,1810.62 1779.02,1810.31"/>
    </edge>
    <edge id=":1078786659_0" function="internal">
        <lane id=":1078786659_0_0" index="0" disallow="tram rail_urban rail rail_electric rail_fast ship container cable_car subway aircraft wheelchair scooter drone" speed="22.22" length="14.54" shape="1180.29,1481.21 1180.07,1466.68"/>
    </edge>
    <edge id=":1078786659_1" function="internal">
        <lane id=":1078786659_1_0" index="0" disallow="tram rail_urban rail rail_electric rail_fast ship container cable_car subway aircraft wheelchair scooter drone" speed="7.97" length="4.19" shape="1180.29,1481.21 1180.73,1477.32 1180.86,1477.08"/>
    </edge>
    <edge id=":1078786659_2" function="internal">
        <lane id=":1078786659_2_0" index="0" disallow="tram rail_urban rail rail_electric rail_fast ship container cable_car subway aircraft wheelchair scooter drone" speed="3.65" length="1.44" shape="1180.29,1481.21 1181.05,1479.99"/>
    </edge>
    <edge id=":1078786659_9" function="internal">
        <lane id=":1078786659_9_0" index="0" disallow="tram rail_urban rail rail_electric rail_fast ship container cable_car subway aircraft wheelchair scooter drone" speed="7.97" length="10.08" shape="1180.86,1477.08 1182.32,1474.52 1185.05,1472.83 1188.92,1472.23"/>
    </edge>
    <edge id=":1078786659_10" function="internal">
        <lane id=":1078786659_10_0" index="0" disallow="tram rail_urban rail rail_electric rail_fast ship container cable_car subway aircraft wheelchair scooter drone" speed="3.65" length="3.23" shape="1181.05,1479.99 1181.84,1479.57 1182.65,1479.94 1183.49,1481.12"/>
    </edge>
    <edge id=":1078786659_3" function="internal">
        <lane id=":1078786659_3_0" index="0" disallow="tram rail_urban rail rail_electric rail_fast ship container cable_car subway aircraft wheelchair scooter drone" speed="6.46" length="9.03" shape="1188.95,1475.43 1186.50,1475.81 1184.77,1476.88 1183.77,1478.65 1183.49,1481.12"/>
    </edge>
    <edge id=":1078786659_4" function="internal">
        <lane id=":1078786659_4_0" index="0" disallow="tram rail_urban rail rail_electric rail_fast ship container cable_car subway aircraft wheelchair scooter drone" speed="7.99" length="14.26" shape="1188.95,1475.43 1185.07,1474.92 1182.29,1473.29 1180.62,1470.54 1180.07,1466.68"/>
    </edge>
    <edge id=":1078786659_5" function="internal">
        <lane id=":1078786659_5_0" index="0" disallow="tram rail_urban rail rail_electric rail_fast ship container cable_car subway aircraft wheelchair scooter drone" speed="3.65" length="4.67" shape="1188.95,1475.43 1187.75,1474.64 1187.34,1473.85 1187.73,1473.04 1188.92,1472.23"/>
    </edge>
    <edge id=":1078786659_6" function="internal">
        <lane id=":1078786659_6_0" index="0" disallow="tram rail_urban rail rail_electric rail_fast ship container cable_car subway aircraft wheelchair scooter drone" speed="6.50" length="9.06" shape="1183.27,1466.67 1183.62,1469.13 1184.68,1470.87 1186.45,1471.91 1188.92,1472.23"/>
    </edge>
    <edge id=":1078786659_7" function="internal">
        <lane id=":1078786659_7_0" index="0" disallow="tram rail_urban rail rail_electric rail_fast ship container cable_car subway aircraft wheelchair scooter drone" speed="22.22" length="14.45" shape="1183.27,1466.67 1183.49,1481.12"/>
    </edge>
    <edge id=":1078786659_8" function="internal">
        <lane id=":1078786659_8_0" index="0" disallow="tram rail_urban rail rail_electric rail_fast ship container cable_car subway aircraft wheelchair scooter drone" speed="3.65" length="1.44" shape="1183.27,1466.67 1182.47,1467.87"/>
    </edge>
    <edge id=":1078786659_11" function="internal">
        <lane id=":1078786659_11_0" index="0" disallow="tram rail_urban rail rail_electric rail_fast ship container cable_car subway aircraft wheelchair scooter drone" speed="3.65" length="3.23" shape="1182.47,1467.87 1181.67,1468.28 1180.87,1467.88 1180.07,1466.68"/>
    </edge>
    <edge id=":1078786792_0" function="internal">
        <lane id=":1078786792_0_0" index="0" disallow="tram rail_urban rail rail_electric rail_fast ship container cable_car subway aircraft wheelchair scooter drone" speed="3.65" length="4.67" shape="1713.17,1684.46 1714.31,1685.34 1714.65,1686.17 1714.19,1686.94 1712.93,1687.65"/>
    </edge>
    <edge id=":1080129532_0" function="internal">
        <lane id=":1080129532_0_0" index="0" disallow="tram rail_urban rail rail_electric rail_fast ship container cable_car subway aircraft wheelchair scooter drone" speed="3.65" length="4.67" shape="1860.29,2039.89 1861.72,2040.09 1862.42,2040.64 1862.41,2041.54 1861.67,2042.78"/>
    </edge>
    <edge id=":11288904591_0" function="internal">
        <lane id=":11288904591_0_0" index="0" allow="pedestrian delivery bicycle" speed="5.09" length="5.07" shape="2072.38,1507.56 2072.11,1506.18 2071.48,1505.21 2070.49,1504.65 2069.13,1504.50"/>
    </edge>
    <edge id=":11288904591_1" function="internal">
        <lane id=":11288904591_1_0" index="0" allow="pedestrian delivery bicycle" speed="6.85" length="10.24" shape="2072.38,1507.56 2072.62,1504.76 2073.71,1502.72 2075.64,1501.45 2078.40,1500.95"/>
    </edge>
    <edge id=":11288904591_2" function="internal">
        <lane id=":11288904591_2_0" index="0" allow="pedestrian delivery bicycle" speed="3.65" length="4.67" shape="2072.38,1507.56 2073.11,1506.32 2073.89,1505.88 2074.71,1506.23 2075.57,1507.39"/>
    </edge>
    <edge id=":11288904591_3" function="internal">
        <lane id=":11288904591_3_0" index="0" allow="pedestrian delivery bicycle" speed="5.02" length="5.02" shape="2078.53,1504.14 2077.17,1504.39 2076.23,1505.01 2075.69,1506.01 2075.57,1507.39"/>
    </edge>
    <edge id=":11288904591_4" function="internal">
        <lane id=":11288904591_4_0" index="0" disallow="tram rail_urban rail rail_electric rail_fast ship container cable_car subway aircraft wheelchair scooter drone" speed="13.89" length="9.40" shape="2078.53,1504.14 2069.13,1504.50"/>
    </edge>
    <edge id=":11288904591_5" function="internal">
        <lane id=":11288904591_5_0" index="0" disallow="tram rail_urban rail rail_electric rail_fast ship container cable_car subway aircraft wheelchair scooter drone" speed="13.89" length="9.40" shape="2069.01,1501.31 2078.40,1500.95"/>
    </edge>
    <edge id=":11288904591_6" function="internal">
        <lane id=":11288904591_6_0" index="0" allow="pedestrian delivery bicycle" speed="6.90" length="3.23" shape="2069.01,1501.31 2071.75,1501.60 2072.17,1501.83"/>
    </edge>
    <edge id=":11288904591_7" function="internal">
        <lane id=":11288904591_7_0" index="0" allow="pedestrian delivery bicycle" speed="6.90" length="6.93" shape="2072.17,1501.83 2073.76,1502.71 2075.03,1504.64 2075.57,1507.39"/>
    </edge>
    <edge id=":11288904592_0" function="internal">
        <lane id=":11288904592_0_0" index="0" allow="pedestrian delivery bicycle" speed="3.65" length="4.67" shape="2079.84,1585.23 2079.10,1586.47 2078.33,1586.92 2077.51,1586.56 2076.64,1585.41"/>
    </edge>
    <edge id=":11423174664_0" function="internal">
        <lane id=":11423174664_0_0" index="0" disallow="tram rail_urban rail rail_electric rail_fast ship container cable_car subway aircraft wheelchair scooter drone" speed="22.22" length="8.54" shape="1986.26,76.39 1977.75,77.08"/>
    </edge>
    <edge id=":11423174664_1" function="internal">
        <lane id=":11423174664_1_0" index="0" allow="pedestrian delivery bicycle" speed="8.87" length="8.09" shape="1978.76,69.99 1980.84,71.56 1982.74,72.63 1984.44,73.17 1985.96,73.20"/>
    </edge>
    <edge id=":11423174664_2" function="internal">
        <lane id=":11423174664_2_0" index="0" allow="pedestrian delivery bicycle" speed="5.88" length="11.53" shape="1978.76,69.99 1981.56,72.84 1982.32,74.97 1981.05,76.38 1977.75,77.08"/>
    </edge>
    <edge id=":11423174664_3" function="internal">
        <lane id=":11423174664_3_0" index="0" disallow="tram rail_urban rail rail_electric rail_fast ship container cable_car subway aircraft wheelchair scooter drone" speed="22.22" length="8.48" shape="1977.50,73.89 1985.96,73.20"/>
    </edge>
    <edge id=":11423174668_0" function="internal">
        <lane id=":11423174668_0_0" index="0" disallow="tram rail_urban rail rail_electric rail_fast ship container cable_car subway aircraft wheelchair scooter drone" speed="22.22" length="6.51" shape="1925.50,81.34 1919.01,81.85"/>
    </edge>
    <edge id=":11423174668_1" function="internal">
        <lane id=":11423174668_1_0" index="0" allow="pedestrian delivery bicycle" speed="5.81" length="2.29" shape="1925.50,81.34 1923.41,81.09 1923.28,80.97"/>
    </edge>
    <edge id=":11423174668_4" function="internal">
        <lane id=":11423174668_4_0" index="0" allow="pedestrian delivery bicycle" speed="5.81" length="6.71" shape="1923.28,80.97 1922.21,79.92 1921.91,77.82 1922.51,74.79"/>
    </edge>
    <edge id=":11423174668_2" function="internal">
        <lane id=":11423174668_2_0" index="0" allow="pedestrian delivery bicycle" speed="6.12" length="5.72" shape="1918.79,78.66 1920.00,78.35 1921.02,77.60 1921.86,76.42 1922.51,74.79"/>
    </edge>
    <edge id=":11423174668_3" function="internal">
        <lane id=":11423174668_3_0" index="0" disallow="tram rail_urban rail rail_electric rail_fast ship container cable_car subway aircraft wheelchair scooter drone" speed="22.22" length="6.46" shape="1918.79,78.66 1925.24,78.15"/>
    </edge>
    <edge id=":11425939863_0" function="internal">
        <lane id=":11425939863_0_0" index="0" allow="pedestrian delivery bicycle" speed="8.90" length="7.17" shape="956.76,806.13 955.04,804.41 953.50,803.18 952.14,802.42 950.96,802.14"/>
    </edge>
    <edge id=":11425939863_1" function="internal">
        <lane id=":11425939863_1_0" index="0" allow="pedestrian delivery bicycle" speed="5.87" length="11.42" shape="956.76,806.13 954.36,802.99 953.87,800.79 955.27,799.52 958.58,799.20"/>
    </edge>
    <edge id=":11425939863_2" function="internal">
        <lane id=":11425939863_2_0" index="0" disallow="tram rail_urban rail rail_electric rail_fast ship container cable_car subway aircraft wheelchair scooter drone" speed="22.22" length="7.51" shape="958.47,802.40 950.96,802.14"/>
    </edge>
    <edge id=":11425939863_3" function="internal">
        <lane id=":11425939863_3_0" index="0" disallow="tram rail_urban rail rail_electric rail_fast ship container cable_car subway aircraft wheelchair scooter drone" speed="22.22" length="7.51" shape="951.07,798.94 958.58,799.20"/>
    </edge>
    <edge id=":11425939868_0" function="internal">
        <lane id=":11425939868_0_0" index="0" allow="pedestrian delivery bicycle" speed="6.81" length="6.09" shape="1019.77,804.52 1018.56,804.71 1017.39,805.36 1016.25,806.48 1015.13,808.05"/>
    </edge>
    <edge id=":11425939868_1" function="internal">
        <lane id=":11425939868_1_0" index="0" disallow="tram rail_urban rail rail_electric rail_fast ship container cable_car subway aircraft wheelchair scooter drone" speed="22.22" length="6.67" shape="1019.77,804.52 1013.10,804.29"/>
    </edge>
    <edge id=":11425939868_2" function="internal">
        <lane id=":11425939868_2_0" index="0" disallow="tram rail_urban rail rail_electric rail_fast ship container cable_car subway aircraft wheelchair scooter drone" speed="22.22" length="6.67" shape="1013.21,801.09 1019.88,801.32"/>
    </edge>
    <edge id=":11425939868_3" function="internal">
        <lane id=":11425939868_3_0" index="0" allow="pedestrian delivery bicycle" speed="5.78" length="2.58" shape="1013.21,801.09 1015.59,801.60 1015.69,801.72"/>
    </edge>
    <edge id=":11425939868_4" function="internal">
        <lane id=":11425939868_4_0" index="0" allow="pedestrian delivery bicycle" speed="5.78" length="7.03" shape="1015.69,801.72 1016.71,802.94 1016.55,805.09 1015.13,808.05"/>
    </edge>
    <edge id=":11841441453_0" function="internal">
        <lane id=":11841441453_0_0" index="0" disallow="tram rail_urban rail rail_electric rail_fast ship container cable_car subway aircraft wheelchair scooter drone" speed="3.65" length="4.67" shape="1251.33,1976.08 1250.89,1977.45 1250.23,1978.06 1249.35,1977.89 1248.25,1976.96"/>
    </edge>
    <edge id=":11863880023_0" function="internal">
        <lane id=":11863880023_0_0" index="0" disallow="tram rail_urban rail rail_electric rail_fast ship container cable_car subway aircraft wheelchair scooter drone" speed="3.65" length="4.67" shape="2160.12,31.60 2161.38,32.30 2161.84,33.07 2161.51,33.90 2160.38,34.79"/>
    </edge>
    <edge id=":11947971612_0" function="internal">
        <lane id=":11947971612_0_0" index="0" allow="pedestrian delivery bicycle" speed="3.65" length="4.67" shape="1768.83,130.57 1770.17,131.12 1770.72,131.82 1770.49,132.68 1769.48,133.71"/>
    </edge>
    <edge id=":11947971649_0" function="internal">
        <lane id=":11947971649_0_0" index="0" allow="pedestrian delivery bicycle" speed="5.56" length="9.41" shape="1655.75,553.92 1655.55,563.34"/>
    </edge>
    <edge id=":11947971649_1" function="internal">
        <lane id=":11947971649_1_0" index="0" allow="pedestrian delivery bicycle" speed="5.56" length="10.19" shape="1655.75,553.92 1655.30,556.57 1654.06,558.50 1652.03,559.71 1649.22,560.19"/>
    </edge>
    <edge id=":11947971649_2" function="internal">
        <lane id=":11947971649_2_0" index="0" allow="pedestrian delivery bicycle" speed="3.65" length="4.67" shape="1655.75,553.92 1654.93,555.11 1654.12,555.49 1653.33,555.07 1652.55,553.86"/>
    </edge>
    <edge id=":11947971649_3" function="internal">
        <lane id=":11947971649_3_0" index="0" allow="pedestrian delivery bicycle" speed="5.24" length="5.25" shape="1649.10,556.99 1650.59,556.75 1651.66,556.14 1652.31,555.18 1652.55,553.86"/>
    </edge>
    <edge id=":11947971649_4" function="internal">
        <lane id=":11947971649_4_0" index="0" allow="pedestrian delivery bicycle" speed="5.56" length="10.46" shape="1649.10,556.99 1651.98,557.29 1654.01,558.45 1655.20,560.47 1655.55,563.34"/>
    </edge>
    <edge id=":11947971649_5" function="internal">
        <lane id=":11947971649_5_0" index="0" allow="pedestrian delivery bicycle" speed="3.65" length="4.67" shape="1649.10,556.99 1650.33,557.74 1650.76,558.53 1650.39,559.34 1649.22,560.19"/>
    </edge>
    <edge id=":11947971649_6" function="internal">
        <lane id=":11947971649_6_0" index="0" allow="pedestrian delivery bicycle" speed="4.98" length="5.07" shape="1652.35,563.27 1652.18,561.87 1651.60,560.90 1650.62,560.34 1649.22,560.19"/>
    </edge>
    <edge id=":11947971649_7" function="internal">
        <lane id=":11947971649_7_0" index="0" allow="pedestrian delivery bicycle" speed="5.56" length="9.41" shape="1652.35,563.27 1652.55,553.86"/>
    </edge>
    <edge id=":11947971649_8" function="internal">
        <lane id=":11947971649_8_0" index="0" allow="pedestrian delivery bicycle" speed="3.65" length="4.67" shape="1652.35,563.27 1653.18,562.08 1653.98,561.70 1654.78,562.12 1655.55,563.34"/>
    </edge>
    <edge id=":11947971650_0" function="internal">
        <lane id=":11947971650_0_0" index="0" allow="pedestrian delivery bicycle" speed="3.65" length="4.67" shape="1604.03,561.92 1602.80,561.16 1602.37,560.38 1602.74,559.56 1603.91,558.72"/>
    </edge>
    <edge id=":11952553704_0" function="internal">
        <lane id=":11952553704_0_0" index="0" allow="pedestrian delivery bicycle" speed="5.56" length="6.78" shape="1491.98,701.43 1491.24,700.38 1490.01,699.63 1488.26,699.21 1486.01,699.09"/>
    </edge>
    <edge id=":11952553704_1" function="internal">
        <lane id=":11952553704_1_0" index="0" allow="pedestrian delivery bicycle" speed="5.56" length="9.84" shape="1491.98,701.43 1488.37,692.28"/>
    </edge>
    <edge id=":11952553704_2" function="internal">
        <lane id=":11952553704_2_0" index="0" allow="pedestrian delivery bicycle" speed="3.65" length="4.67" shape="1491.98,701.43 1492.28,700.02 1492.88,699.36 1493.77,699.44 1494.95,700.26"/>
    </edge>
    <edge id=":11952553704_3" function="internal">
        <lane id=":11952553704_3_0" index="0" allow="pedestrian delivery bicycle" speed="5.56" length="9.84" shape="1491.35,691.11 1494.95,700.26"/>
    </edge>
    <edge id=":11952553704_4" function="internal">
        <lane id=":11952553704_4_0" index="0" allow="pedestrian delivery bicycle" speed="5.56" length="12.17" shape="1491.35,691.11 1492.17,694.55 1491.56,697.03 1489.50,698.54 1486.01,699.09"/>
    </edge>
    <edge id=":11952553704_5" function="internal">
        <lane id=":11952553704_5_0" index="0" allow="pedestrian delivery bicycle" speed="3.65" length="4.67" shape="1491.35,691.11 1491.04,692.52 1490.45,693.19 1489.55,693.11 1488.37,692.28"/>
    </edge>
    <edge id=":11952553704_6" function="internal">
        <lane id=":11952553704_6_0" index="0" allow="pedestrian delivery bicycle" speed="4.75" length="5.50" shape="1485.96,695.89 1487.54,695.64 1488.47,694.96 1488.74,693.84 1488.37,692.28"/>
    </edge>
    <edge id=":11952553704_7" function="internal">
        <lane id=":11952553704_7_0" index="0" allow="pedestrian delivery bicycle" speed="5.56" length="10.66" shape="1485.96,695.89 1489.23,696.12 1491.82,696.92 1493.73,698.30 1494.95,700.26"/>
    </edge>
    <edge id=":11952553704_8" function="internal">
        <lane id=":11952553704_8_0" index="0" allow="pedestrian delivery bicycle" speed="3.65" length="4.67" shape="1485.96,695.89 1487.17,696.67 1487.58,697.46 1487.20,698.27 1486.01,699.09"/>
    </edge>
    <edge id=":11952553707_0" function="internal">
        <lane id=":11952553707_0_0" index="0" allow="pedestrian delivery bicycle" speed="5.56" length="9.40" shape="1433.40,699.96 1424.01,700.14"/>
    </edge>
    <edge id=":11952553707_1" function="internal">
        <lane id=":11952553707_1_0" index="0" allow="pedestrian delivery bicycle" speed="5.56" length="10.18" shape="1433.40,699.96 1430.77,699.60 1428.80,698.43 1427.49,696.45 1426.85,693.66"/>
    </edge>
    <edge id=":11952553707_2" function="internal">
        <lane id=":11952553707_2_0" index="0" allow="pedestrian delivery bicycle" speed="3.65" length="4.67" shape="1433.40,699.96 1432.19,699.18 1431.78,698.38 1432.16,697.58 1433.35,696.76"/>
    </edge>
    <edge id=":11952553707_3" function="internal">
        <lane id=":11952553707_3_0" index="0" allow="pedestrian delivery bicycle" speed="5.31" length="5.32" shape="1430.04,693.35 1430.37,694.86 1431.03,695.93 1432.03,696.56 1433.35,696.76"/>
    </edge>
    <edge id=":11952553707_4" function="internal">
        <lane id=":11952553707_4_0" index="0" allow="pedestrian delivery bicycle" speed="5.56" length="10.54" shape="1430.04,693.35 1429.90,696.27 1428.85,698.37 1426.89,699.66 1424.01,700.14"/>
    </edge>
    <edge id=":11952553707_5" function="internal">
        <lane id=":11952553707_5_0" index="0" allow="pedestrian delivery bicycle" speed="3.65" length="4.67" shape="1430.04,693.35 1429.36,694.62 1428.60,695.10 1427.77,694.78 1426.85,693.66"/>
    </edge>
    <edge id=":11952553707_6" function="internal">
        <lane id=":11952553707_6_0" index="0" allow="pedestrian delivery bicycle" speed="4.96" length="5.09" shape="1423.94,696.94 1425.33,696.71 1426.28,696.08 1426.79,695.07 1426.85,693.66"/>
    </edge>
    <edge id=":11952553707_7" function="internal">
        <lane id=":11952553707_7_0" index="0" allow="pedestrian delivery bicycle" speed="5.56" length="9.41" shape="1423.94,696.94 1433.35,696.76"/>
    </edge>
    <edge id=":11952553707_8" function="internal">
        <lane id=":11952553707_8_0" index="0" allow="pedestrian delivery bicycle" speed="3.65" length="4.67" shape="1423.94,696.94 1425.16,697.71 1425.57,698.50 1425.19,699.31 1424.01,700.14"/>
    </edge>
    <edge id=":11952553708_0" function="internal">
        <lane id=":11952553708_0_0" index="0" allow="pedestrian delivery bicycle" speed="5.36" length="5.38" shape="1425.00,674.35 1424.67,672.81 1424.01,671.71 1423.02,671.05 1421.70,670.83"/>
    </edge>
    <edge id=":11952553708_1" function="internal">
        <lane id=":11952553708_1_0" index="0" allow="pedestrian delivery bicycle" speed="5.56" length="10.60" shape="1425.00,674.35 1425.14,671.41 1426.20,669.30 1428.18,668.03 1431.09,667.58"/>
    </edge>
    <edge id=":11952553708_2" function="internal">
        <lane id=":11952553708_2_0" index="0" allow="pedestrian delivery bicycle" speed="3.65" length="4.67" shape="1425.00,674.35 1425.68,673.08 1426.44,672.60 1427.27,672.92 1428.18,674.04"/>
    </edge>
    <edge id=":11952553708_3" function="internal">
        <lane id=":11952553708_3_0" index="0" allow="pedestrian delivery bicycle" speed="4.95" length="5.11" shape="1431.12,670.78 1429.72,671.00 1428.76,671.61 1428.25,672.63 1428.18,674.04"/>
    </edge>
    <edge id=":11952553708_4" function="internal">
        <lane id=":11952553708_4_0" index="0" allow="pedestrian delivery bicycle" speed="5.56" length="9.42" shape="1431.12,670.78 1421.70,670.83"/>
    </edge>
    <edge id=":11952553708_5" function="internal">
        <lane id=":11952553708_5_0" index="0" allow="pedestrian delivery bicycle" speed="3.65" length="4.67" shape="1431.12,670.78 1429.91,669.99 1429.51,669.20 1429.90,668.39 1431.09,667.58"/>
    </edge>
    <edge id=":11952553708_6" function="internal">
        <lane id=":11952553708_6_0" index="0" allow="pedestrian delivery bicycle" speed="5.56" length="9.39" shape="1421.70,667.63 1431.09,667.58"/>
    </edge>
    <edge id=":11952553708_7" function="internal">
        <lane id=":11952553708_7_0" index="0" allow="pedestrian delivery bicycle" speed="5.56" length="10.19" shape="1421.70,667.63 1424.30,668.03 1426.25,669.23 1427.55,671.23 1428.18,674.04"/>
    </edge>
    <edge id=":11952553708_8" function="internal">
        <lane id=":11952553708_8_0" index="0" allow="pedestrian delivery bicycle" speed="3.65" length="4.67" shape="1421.70,667.63 1422.90,668.43 1423.30,669.23 1422.90,670.03 1421.70,670.83"/>
    </edge>
    <edge id=":11952553710_0" function="internal">
        <lane id=":11952553710_0_0" index="0" allow="pedestrian delivery bicycle" speed="4.99" length="5.06" shape="1575.42,751.06 1575.19,749.69 1574.56,748.74 1573.56,748.22 1572.16,748.12"/>
    </edge>
    <edge id=":11952553710_1" function="internal">
        <lane id=":11952553710_1_0" index="0" disallow="tram rail_urban rail rail_electric rail_fast ship container cable_car subway aircraft wheelchair scooter drone" speed="27.78" length="9.41" shape="1575.42,751.06 1575.17,741.66"/>
    </edge>
    <edge id=":11952553710_2" function="internal">
        <lane id=":11952553710_2_0" index="0" allow="pedestrian delivery bicycle" speed="5.21" length="5.20" shape="1571.92,744.93 1573.37,744.63 1574.40,743.99 1575.00,743.00 1575.17,741.66"/>
    </edge>
    <edge id=":11952553710_3" function="internal">
        <lane id=":11952553710_3_0" index="0" allow="pedestrian delivery bicycle" speed="3.65" length="4.67" shape="1571.92,744.93 1573.18,745.64 1573.64,746.41 1573.30,747.23 1572.16,748.12"/>
    </edge>
    <edge id=":11952553732_0" function="internal">
        <lane id=":11952553732_0_0" index="0" allow="pedestrian delivery bicycle" speed="3.65" length="4.67" shape="1497.85,595.63 1499.06,596.42 1499.46,597.21 1499.07,598.02 1497.88,598.83"/>
    </edge>
    <edge id=":1198210967_0" function="internal">
        <lane id=":1198210967_0_0" index="0" disallow="tram rail_urban rail rail_electric rail_fast ship container cable_car subway aircraft wheelchair scooter drone" speed="6.60" length="9.70" shape="1652.07,49.38 1649.30,48.67 1647.07,48.94 1645.37,50.18 1644.21,52.39"/>
    </edge>
    <edge id=":1198210967_1" function="internal">
        <lane id=":1198210967_1_0" index="0" disallow="tram rail_urban rail rail_electric rail_fast ship container cable_car subway aircraft wheelchair scooter drone" speed="22.22" length="12.21" shape="1652.07,49.38 1640.65,45.06"/>
    </edge>
    <edge id=":1198210967_2" function="internal">
        <lane id=":1198210967_2_0" index="0" disallow="tram rail_urban rail rail_electric rail_fast ship container cable_car subway aircraft wheelchair scooter drone" speed="3.65" length="4.67" shape="1652.07,49.38 1651.24,48.19 1651.16,47.30 1651.83,46.70 1653.24,46.40"/>
    </edge>
    <edge id=":1198210967_3" function="internal">
        <lane id=":1198210967_3_0" index="0" disallow="tram rail_urban rail rail_electric rail_fast ship container cable_car subway aircraft wheelchair scooter drone" speed="5.89" length="8.77" shape="1651.02,39.64 1649.85,41.75 1649.83,43.59 1650.96,45.13 1653.24,46.40"/>
    </edge>
    <edge id=":1198210967_4" function="internal">
        <lane id=":1198210967_4_0" index="0" disallow="tram rail_urban rail rail_electric rail_fast ship container cable_car subway aircraft wheelchair scooter drone" speed="20.84" length="14.52" shape="1651.02,39.64 1648.89,42.63 1647.06,45.72 1645.51,48.95 1644.21,52.39"/>
    </edge>
    <edge id=":1198210967_5" function="internal">
        <lane id=":1198210967_5_0" index="0" disallow="tram rail_urban rail rail_electric rail_fast ship container cable_car subway aircraft wheelchair scooter drone" speed="8.56" length="12.48" shape="1651.02,39.64 1648.30,42.66 1645.66,44.57 1643.11,45.37 1640.65,45.06"/>
    </edge>
    <edge id=":1198210967_6" function="internal">
        <lane id=":1198210967_6_0" index="0" disallow="tram rail_urban rail rail_electric rail_fast ship container cable_car subway aircraft wheelchair scooter drone" speed="6.92" length="9.99" shape="1648.82,38.71 1648.42,41.16 1649.03,43.26 1650.63,45.00 1653.24,46.40"/>
    </edge>
    <edge id=":1198210967_7" function="internal">
        <lane id=":1198210967_7_0" index="0" disallow="tram rail_urban rail rail_electric rail_fast ship container cable_car subway aircraft wheelchair scooter drone" speed="27.78" length="14.43" shape="1648.82,38.71 1644.21,52.39"/>
    </edge>
    <edge id=":1198210967_8" function="internal">
        <lane id=":1198210967_8_0" index="0" disallow="tram rail_urban rail rail_electric rail_fast ship container cable_car subway aircraft wheelchair scooter drone" speed="7.27" length="11.68" shape="1648.82,38.71 1647.25,42.21 1645.36,44.43 1643.16,45.38 1640.65,45.06"/>
    </edge>
    <edge id=":1198210967_9" function="internal">
        <lane id=":1198210967_9_0" index="0" disallow="tram rail_urban rail rail_electric rail_fast ship container cable_car subway aircraft wheelchair scooter drone" speed="22.22" length="12.30" shape="1641.73,42.05 1653.24,46.40"/>
    </edge>
    <edge id=":1198210967_10" function="internal">