<?xml version='1.0' encoding='UTF-8'?>
<routes xmlns:xsi="http://www.w3.org/2001/XMLSchema-instance" xsi:noNamespaceSchemaLocation="http://sumo.dlr.de/xsd/routes_file.xsd">
    <vType id="veh_passenger" vClass="passenger" accel="2.6" decel="4.5" sigma="0.5" length="4.5" minGap="2.5" maxSpeed="15.555556" speedFactor="normc(1.00,0.10,0.70,1.30)" color="1,1,0" />
    <vehicle id="changfeng5_3_0" type="veh_passenger" depart="0.000" departPos="random_free" arrivalPos="12.31" departLane="best" departSpeed="max">
        <route edges="1118804255 1073705831 1324597546 1118486327#0 1118486327#1 1118486328#0 1118486328#1 1118486327#0 1118486327#1 1231722480 1118486325#0 1118486325#1 1118486325#2 44418748#0 1275296713 -1275296713 -240679755 -142638060#1 -142638060#0 -1167550619#2 -687003614#0 -687003615 1270411373#1 1270581695#0 1270581695#1 -93173515#1 1478728470#0 1478728470#1 -1478728470#1" />
    </vehicle>
    <vehicle id="changfeng5_3_1" type="veh_passenger" depart="0.250" departPos="random_free" arrivalPos="3.19" departLane="best" departSpeed="max">
        <route edges="1073705828#1 1326094893 1329059764 1231937683 1118486328#0 1118486328#1 1073705819 1324597558 1027408000#0 1027408000#1 1073705831 -97676932#1 -97676932#0 -1478728470#4 -1478728470#3 -1478728470#2 -1478728470#1 -1478728470#0 1478728470#0 1478728470#1 1478728470#2 1478728470#3 1478728470#4 44418751 97676932#1 1324597558 1027408000#0 1027408000#1" />
    </vehicle>
    <vehicle id="changfeng5_3_2" type="veh_passenger" depart="0.500" departPos="random_free" arrivalPos="358.52" departLane="best" departSpeed="max">
        <route edges="109691114#0 109691114#1 -177811577#1 -177811577#0 1073705827#0 -1073705827#0 -372335514 1231722480 1118486325#0 1118486325#1 1118486325#2 44418748#0 -240679755 -142638060#1 -142638060#0 1167550616#0 687003613#1 687003613#2 -687003613#2 -687003613#1 -687003613#0 1167550617#0 142638060#1 142638060#2 -109691095 -1330117304#1 -1324597544 -240679753#1 -240679753#0 -1073798761 -1073705826 -1073798764#2 -1073798764#0 -1073705824#1" />
    </vehicle>
    <vehicle id="changfeng5_3_3" type="veh_passenger" depart="0.750" departPos="random_free" arrivalPos="211.81" departLane="best" departSpeed="max">
        <route edges="1337777339 -1337777339 1073705821 1330117302#0 1330117302#1 103783038 1118486327#0 1118486327#1 1118486328#0 1118486328#1 1118486327#0 1118486327#1 1231722480 1118486325#0 1326094892 1326094893 1231937692 1231937694 1231937693 -1231937693 -1231937694 -1231937692 -1326094893 1337777328#0 1337777328#1" />
    </vehicle>
    <vehicle id="changfeng5_3_4" type="veh_passenger" depart="1.000" departPos="random_free" arrivalPos="87.89" departLane="best" departSpeed="max">
        <route edges="687003615 1330557846 1270411371#0 1270411371#1 -1270411370 -93173515#1 1478728470#0 -1478728470#0 93173515#1 1270411370 1270411355 687003614#0 687003614#1 1167550617#0 177811579#0 177811579#1 177811579#2 -225277345#1 -225277351#0 1118486325#2 1330117305 1329059766 1231937683 1118486328#0 1118486328#1 109691114#0 109691114#1 1073705829#0 1073705829#1 -687003612#2 -687003612#1 -687003612#0" />
    </vehicle>
    <vehicle id="changfeng5_3_5" type="veh_passenger" depart="1.250" departPos="random_free" arrivalPos="34.87" departLane="best" departSpeed="max">
        <route edges="93173515#0 93173515#1 1270411370 1270411355 687003614#0 687003614#1 1167550617#0 142638060#1 142638060#2 -109691095 1330117305 1329059766 1231937683 1118486328#0 1118486328#1 109691114#0 109691114#1 1073705829#0 1073705829#1 687003610#0 225372592#0 225372592#1 225372592#2 225372592#3 -225372590#0 -336885597 -1073705827#3 -1073705827#2 -1073705827#1 -1073705827#0 -372335514 1231722480 1118486325#0 1118486325#1 1118486325#2 44418748#0 -240679755 -142638060#1 -142638060#0 -1167550619#2 -687003614#0 -687003615 1270411373#1 1270581695#0 1270581695#1 -93173515#1 1478728470#0 1478728470#1 -1478728470#1 -1478728470#0 93173515#1 1270411370 1270411355 687003614#0 687003614#1 1167550617#0 142638060#1 142638060#2 -109691095 -1330117304#1 -1324597544 -1073705825" />
    </vehicle>
    <vehicle id="changfeng5_3_6" type="veh_passenger" depart="1.500" departPos="random_free" arrivalPos="84.80" departLane="best" departSpeed="max">
        <route edges="-1275296713 -109691095 1330117305 1329059766 1231937683 1118486328#0 1118486328#1 109691114#0 109691114#1 103783038 1118486327#0 1118486327#1 -1231722479#1 -1231722479#0 1231722479#0 1231722479#1 1231722480 1118486325#0 1326094892 1326094893 1231937692 1231937694 1231937693" />
    </vehicle>
    <vehicle id="changfeng5_3_7" type="veh_passenger" depart="1.750" departPos="random_free" arrivalPos="128.36" departLane="best" departSpeed="max">
        <route edges="-225279017#1 -225279017#0 687003614#1 1167550617#0 142638060#1 142638060#2 -109691095 -1330117304#1 1073705828#0 -765716306 765716306 1073705828#1 1326094893 1329059764 1118486325#0 1326094892 1337777328#0 1337777328#1 1073705822 687003612#0 225372591" />
    </vehicle>
    <vehicle id="changfeng5_3_8" type="veh_passenger" depart="2.000" departPos="random_free" arrivalPos="68.38" departLane="best" departSpeed="max">
        <route edges="1027408000#0 1027408000#1 1073705831 1324597546 109691114#0 109691114#1 1073705829#0 1073705829#1 687003610#0 687003610#1 687003610#2 -1337777339 -1163003870#1 -1163003870#0 -1231722483 -1231722484 1231722484 1231722483 1163003870#0 1163003870#1 1073705821 1330117302#0 1330117302#1 103783038 1073705819 1324597558 1092087672#0 1231722482 -58654498#1 141180079#0 141180079#1 -97676931 1073705832#0 1073705832#1 -62055779#2 -62055779#0" />
    </vehicle>
    <vehicle id="changfeng5_3_9" type="veh_passenger" depart="2.250" departPos="random_free" arrivalPos="64.37" departLane="best" departSpeed="max">
        <route edges="1073705819 1324597546 1118486327#0 1118486327#1 1231722480 1118486325#0 1118486325#1 225277348 225277345#1 -225277345#1 -225277351#0 1118486325#2 1330117305 1329059766 1231937683 372335514 1073705827#0 1073705827#1 -489493508#5 489493512 489493511#1 -687003612#1 -687003612#0 -1073705822 1324597560" />
    </vehicle>
    <vehicle id="changfeng5_3_10" type="veh_passenger" depart="2.500" departPos="random_free" arrivalPos="119.58" departLane="best" departSpeed="max">
        <route edges="489493508#3 489493508#4 489493512 489493511#1 687003612#2 1330117302#0 1330117302#1 103783038 1073705819 -97676932#1 -97676932#0 -1478728470#4 1478728471#0 -1478728475 1478728471#3 1478728471#4 1478728472 -1478728470#1 -1478728470#0 93173515#1 1270411370 1270411355 687003614#0 687003614#1 1167550617#0 142638060#1 142638060#2 -109691095 -1330117304#1 1330117304#0 1330117305 1329059766 1231937683 372335514 1073705827#0 -489493509" />
    </vehicle>
    <vehicle id="changfeng5_3_11" type="veh_passenger" depart="2.750" departPos="random_free" arrivalPos="60.16" departLane="best" departSpeed="max">
        <route edges="-1231937694 -1231937692 -1326094893 -1073705828#1 -1073705828#0 1330117304#0 44418748#0 -240679755 -142638060#1 -142638060#0 1167550616#0 -687003613#0 1167550617#0 142638060#1 142638060#2 -109691095 1330117305 1329059766 1231937683 1118486328#0 1118486328#1 109691114#0 109691114#1 1073705829#0 1073705829#1 687003610#0 687003610#1" />
    </vehicle>
    <vehicle id="changfeng5_3_12" type="veh_passenger" depart="3.000" departPos="random_free" arrivalPos="20.91" departLane="best" departSpeed="max">
        <route edges="109691114#0 109691114#1 1073705829#0 1073705829#1 -687003612#2 -687003612#1 -687003612#0 -1073705822 958876930 1073705824#1 1073798764#0 1073798764#2 1073705826 1073798761 240679753#0 240679753#1 1324597544 1330117304#0 1330117305 1329059766 1231937683 1118486328#0 1118486328#1 1073705819 -97676932#1 -97676932#0 -1478728470#4 1478728471#0 -1478728475 1478728471#3 1478728471#4 1478728471#5 -1478728470#0 93173515#1 1270411370 1270411355 687003614#0 687003614#1 1167550616#0 687003613#1 687003613#2 687003613#3" />
    </vehicle>
    <vehicle id="changfeng5_3_13" type="veh_passenger" depart="3.250" departPos="random_free" arrivalPos="68.96" departLane="best" departSpeed="max">
        <route edges="1478728473 1478728470#3 1478728470#4 44418751 97676932#1 1324597546 1118486327#0 1118486327#1 1118486328#0 1118486328#1 1118486327#0 1118486327#1 1231722480 1118486325#0 1118486325#1 225277348 225277345#1 -177811579#2 -177811579#1 -177811579#0 142638060#1 142638060#2 -109691095 1330117305 1329059766 1231937683 1118486328#0 1118486328#1 109691114#0 109691114#1 1073705829#0 1073705829#1 687003610#0 687003610#1" />
    </vehicle>
    <vehicle id="changfeng5_3_14" type="veh_passenger" depart="3.500" departPos="random_free" arrivalPos="77.73" departLane="best" departSpeed="max">
        <route edges="-1231722479#1 -1231722479#0 1231722479#0 1231722479#1 1231722480 1118486325#0 1326094892 1337777328#0 1337777328#1 958876930 -1073705824#0 225378733 1324597560 1329059764 1231937683 1118486328#0 1118486328#1 1118486327#0 1118486327#1 -1231722479#1 -1231722479#0 1231722479#0 1231722479#1" />
    </vehicle>
    <vehicle id="changfeng5_3_15" type="veh_passenger" depart="3.750" departPos="random_free" arrivalPos="47.96" departLane="best" departSpeed="max">
        <route edges="1478728470#0 1478728470#1 1478728470#2 1478728470#3 1478728470#4 44418751 97676932#1 1324597546 109691114#0 109691114#1 -157810675#2 -157810675#1 -157810675#0 1324597546 1118486327#0 1118486327#1 1231722480 1118486325#0 1118486325#1 1118486325#2 1330117305 1329059766 1231937683 1118486328#0 1118486328#1 1073705819 -97676932#1 -97676932#0 -1478728470#4 -1478728470#3" />
    </vehicle>
    <vehicle id="changfeng5_3_16" type="veh_passenger" depart="4.000" departPos="random_free" arrivalPos="82.90" departLane="best" departSpeed="max">
        <route edges="-1231722483 -1231722484 1231722484 1231722483 1163003870#0 1163003870#1 1073705821 1330117302#0 1330117302#1 -157810675#2 -157810675#1 -157810675#0 1324597546 1118486327#0 1118486327#1 1231722480 1118486325#0 1118486325#1 1118486325#2 1330117300 1238502000 1273359364 1118486326#0 1330117305 1329059766 1231937683 372335514 1073705827#0 -489493509" />
    </vehicle>
    <vehicle id="changfeng5_3_17" type="veh_passenger" depart="4.250" departPos="random_free" arrivalPos="1.29" departLane="best" departSpeed="max">
        <route edges="-1478728470#0 93173515#1 1270411370 1270411355 687003614#0 687003614#1 1167550616#0 687003613#1 687003613#2 -687003613#2 -687003613#1 -687003613#0 1167550617#0 142638060#1 142638060#2 -109691095 1330117305 1326094892 1337777328#0 1337777328#1 958876930 1073705824#1 1073798764#0 1073798764#2 1073705826 1073798761 240679753#0 240679753#1 813902631#0 813902631#2 1324597560 -1326094893" />
    </vehicle>
    <vehicle id="changfeng5_3_18" type="veh_passenger" depart="4.500" departPos="random_free" arrivalPos="60.65" departLane="best" departSpeed="max">
        <route edges="225277348 225277345#1 -177811579#2 -177811579#1 -177811579#0 -142638060#0 1167550616#0 687003613#1 687003613#2 -687003613#2 -687003613#1 -687003613#0 -1167550619#2 -687003614#0 -687003615 1270411373#1 1270581695#0 1270581695#1 1270411370 1270411355 687003614#0 687003614#1 1167550617#0 142638060#1" />
    </vehicle>
    <vehicle id="changfeng5_3_19" type="veh_passenger" depart="4.750" departPos="random_free" arrivalPos="15.65" departLane="best" departSpeed="max">
        <route edges="-163597880 -1073705832#2 -1073705832#0 97676931 -141180079#1 -141180079#0 58654498#1 1118804255 1073705831 1324597546 109691114#0 109691114#1 1073705829#0 1073705829#1 687003610#0 225372592#0 225372592#1 -225372590#2 -225372590#1 -225372592#3 -225372592#2 -225372592#1 -225372592#0 687003610#1 687003610#2 -1337777339 1073705821 1330117302#0 1330117302#1 103783038 1073705819 -97676932#1 -97676932#0 -1478728470#4 1478728471#0 -1478728475 1478728471#3 1478728471#4 1478728471#5 -1478728470#0 93173515#1 1270411370 1270411355 687003614#0 687003614#1 1167550616#0 687003613#1 687003613#2 -1515352060" />
    </vehicle>
</routes>