<?xml version='1.0' encoding='UTF-8'?>
<routes xmlns:xsi="http://www.w3.org/2001/XMLSchema-instance" xsi:noNamespaceSchemaLocation="http://sumo.dlr.de/xsd/routes_file.xsd">
    <vType id="veh_passenger" vClass="passenger" accel="2.6" decel="4.5" sigma="0.5" length="4.5" minGap="2.5" maxSpeed="15.555556" speedFactor="normc(1.00,0.10,0.70,1.30)" color="1,1,0" />
    <vehicle id="changfeng30_2_0" type="veh_passenger" depart="0.000" departPos="random_free" arrivalPos="3.19" departLane="best" departSpeed="max">
        <route edges="177811579#1 177811579#2 -225277345#1 -225277351#0 1118486325#2 -1330117304#1 -1324597544 -240679753#1 -240679753#0 -1073798761 -1073705826 -1073798764#2 -1073798764#0 -1073705824#1 -1073705824#0 225378733 1324597560 1329059764 1118486325#0 1118486325#1 1118486325#2 44418748#0 -240679755 -142638060#1 -142638060#0 1167550616#0 1515352061 -225279017#0 687003614#1 1167550617#0 142638060#1 142638060#2 -109691095 1330117305 1326094892 1326094893 -1326094893" />
    </vehicle>
    <vehicle id="changfeng30_2_1" type="veh_passenger" depart="0.042" departPos="random_free" arrivalPos="23.07" departLane="best" departSpeed="max">
        <route edges="-1073705827#1 1073705827#1 1073705827#2 1073705827#3 336885597 225372590#0 -225372590#0 -336885597 -1073705827#3 -1073705827#2 -1073705827#1 -1073705827#0 -372335514 1231722480 1118486325#0 1118486325#1 225277348 225277345#1 -225277345#1 -225277351#0 1118486325#2 1330117305 1329059766 1231937683 1118486328#0 1118486328#1 109691114#0 109691114#1 -157810675#2 -157810675#1" />
    </vehicle>
    <vehicle id="changfeng30_2_2" type="veh_passenger" depart="0.083" departPos="random_free" arrivalPos="59.18" departLane="best" departSpeed="max">
        <route edges="-489493511#0 1073705827#3 687003612#0 687003612#1 687003612#2 1330117302#0 1330117302#1 103783038 1073705819 1324597558 1092087672#0 103783034#1 1027408000#1 1073705831 1324597546 109691114#0 109691114#1 103783038 1118486327#0 1118486327#1 1231722480 1118486325#0 1118486325#1 1118486325#2 44418748#0 -109691095" />
    </vehicle>
    <vehicle id="changfeng30_2_3" type="veh_passenger" depart="0.125" departPos="random_free" arrivalPos="3.64" departLane="best" departSpeed="max">
        <route edges="-225277351#1 -225277351#0 1118486325#2 1330117305 1329059766 1231937683 372335514 1073705827#0 1073705827#1 1073705827#2 489493511#0 489493511#1 -687003612#1 225372591 225372590#2 225372592#2 225372592#3 -225372590#0 -336885597 -1073705822 958876930 -1073705824#0" />
    </vehicle>
    <vehicle id="changfeng30_2_4" type="veh_passenger" depart="0.167" departPos="random_free" arrivalPos="168.53" departLane="best" departSpeed="max">
        <route edges="141180079#1 -141180079#1 -141180079#0 58654498#1 1118804255 1073705831 1324597546 109691114#0 109691114#1 1073705829#0 1073705829#1 687003610#0 225372592#0 225372592#1 -225372590#2 -225372591 -687003612#0 -1073705822 1324597560 1329059764 1118486325#0 1118486325#1 1118486325#2 44418748#0 -240679755 -142638060#1 -142638060#0 -1167550619#2 -687003614#0 -687003615 1270411373#1 1270581695#0" />
    </vehicle>
    <vehicle id="changfeng30_2_5" type="veh_passenger" depart="0.208" departPos="random_free" arrivalPos="12.00" departLane="best" departSpeed="max">
        <route edges="-1515352060 -225279017#1 -225279017#0 -687003614#0 -687003615 687003615 687003614#0 687003614#1 1167550617#0 177811579#0 177811579#1 177811579#2 -177811579#2 -177811579#1 -177811579#0 142638060#1 142638060#2 -109691095 1330117305 1329059766 1118486325#0" />
    </vehicle>
    <vehicle id="changfeng30_2_6" type="veh_passenger" depart="0.250" departPos="random_free" arrivalPos="120.04" departLane="best" departSpeed="max">
        <route edges="1073705832#1 -1073705832#2 -1073705832#0 97676931 -141180079#1 -141180079#0 58654498#1 1118804255 1073705831 1324597546 1118486327#0 1118486327#1 -1231722479#1 -1231722479#0 1231722479#0 1231722479#1 1231722480 1118486325#0 1118486325#1 1118486325#2 44418748#0 -240679755 -142638060#1 142638060#1 142638060#2 -109691095 1330117305 1329059766 1231937683 1118486328#0 1118486328#1 1073705819 1324597558 1092087672#0 1231722482 -58654498#1 141180079#0 141180079#1 -97676931 1073705832#0" />
    </vehicle>
    <vehicle id="changfeng30_2_7" type="veh_passenger" depart="0.292" departPos="random_free" arrivalPos="45.22" departLane="best" departSpeed="max">
        <route edges="1478728471#0 -1478728471#0 1478728470#4 44418751 97676932#1 1324597546 109691114#0 109691114#1 1073705829#0 1073705829#1 687003610#0 687003610#1 687003610#2 -1337777339 -1163003870#1 -1163003870#0 -1231722483 -1231722484 1231722484 1231722483 1163003870#0 1163003870#1 1073705821 -687003612#2 -687003612#1 -687003612#0 -1073705822 -813902631#2 -813902631#0 1324597544 1073705828#0 -1073705828#0 -1324597544 -240679753#1" />
    </vehicle>
    <vehicle id="changfeng30_2_8" type="veh_passenger" depart="0.333" departPos="random_free" arrivalPos="55.30" departLane="best" departSpeed="max">
        <route edges="687003614#0 687003614#1 1167550616#0 687003613#1 687003613#2 -1515352060 -225279017#1 -225279017#0 687003614#1 1167550617#0 142638060#1 142638060#2 -109691095 1330117305 1329059766 1231937683 1118486328#0 1118486328#1 109691114#0 109691114#1 1073705829#0 1073705829#1 687003610#0 687003610#1 687003610#2 -1337777339 1073705821 687003610#0 225372592#0 225372592#1 -225372592#1" />
    </vehicle>
    <vehicle id="changfeng30_2_9" type="veh_passenger" depart="0.375" departPos="random_free" arrivalPos="48.74" departLane="best" departSpeed="max">
        <route edges="-1478728471#4 1478728471#4 1478728471#5 -1478728470#0 93173515#1 1270411370 1270411355 687003614#0 687003614#1 1167550617#0 142638060#1 142638060#2 -109691095 -1330117304#1 -1324597544 -240679753#1 -240679753#0 -1073798761 -1073705826 -1073798764#2 -1073798764#0 -1073705824#1 -1073705824#0 225378733 1324597560 1329059764 1118486325#0 1118486325#1 225277348 225277345#1" />
    </vehicle>
    <vehicle id="changfeng30_2_10" type="veh_passenger" depart="0.417" departPos="random_free" arrivalPos="104.37" departLane="best" departSpeed="max">
        <route edges="-1478728471#4 1478728473 1478728470#3 1478728470#4 44418751 97676932#1 1324597546 1118486327#0 1118486327#1 1231722480 1118486325#0 1326094892 1326094893 -1326094893 1326094893 1231937692 1231937694 1231937693 177811577#0 177811577#1 1073705829#0 1073705829#1 1330117302#0 1330117302#1 103783038 1118486327#0 1118486327#1 1231722480 1118486325#0 1118486325#1 1118486325#2 44418748#0 -240679755" />
    </vehicle>
    <vehicle id="changfeng30_2_11" type="veh_passenger" depart="0.458" departPos="random_free" arrivalPos="183.30" departLane="best" departSpeed="max">
        <route edges="1275296705 -1167550619#2 -687003614#0 -687003615 1270411373#1 1270581695#0 1270581695#1 -93173515#1 1478728470#0 1478728470#1 -1478728472 -1478728471#4 -1478728471#3 1478728475 -1478728471#0 1478728470#4 44418751 97676932#1 1324597546 109691114#0 109691114#1 1073705829#0 1073705829#1 687003610#0 687003610#1 687003610#2 -1337777339 -1163003870#1 -1163003870#0 -1231722483 -1231722484 1231722484 1231722483 1163003870#0 1163003870#1 1073705821 1330117302#0 1330117302#1 103783038 1073705820 336728119" />
    </vehicle>
    <vehicle id="changfeng30_2_12" type="veh_passenger" depart="0.500" departPos="random_free" arrivalPos="1.09" departLane="best" departSpeed="max">
        <route edges="68992985#2 -1275296713 -240679755 -142638060#1 -142638060#0 1167550616#0 687003613#1 687003613#2 -687003613#2 -687003613#1 -687003613#0 1167550617#0 142638060#1 142638060#2 -109691095 1330117305 1329059766 1231937683 372335514 -1231937693 -1231937694 -1231937692 1329059764 1231937683 1118486328#0 1118486328#1 1073705819 1324597558 1092087672#0 1231722482 -58654498#1 141180079#0" />
    </vehicle>
    <vehicle id="changfeng30_2_13" type="veh_passenger" depart="0.542" departPos="random_free" arrivalPos="427.42" departLane="best" departSpeed="max">
        <route edges="225277345#1 -225277345#1 -225277351#0 1118486325#2 1330117305 1326094892 1337777328#0 1337777328#1 958876930 1073705824#1 1073798764#0 1073798764#2 1073705826 1073798761 240679753#0 240679753#1 1324597544 1330117304#0 44418748#0 -109691095" />
    </vehicle>
    <vehicle id="changfeng30_2_14" type="veh_passenger" depart="0.583" departPos="random_free" arrivalPos="7.23" departLane="best" departSpeed="max">
        <route edges="489493508#2 489493509 1073705827#1 -1073705827#1 -1073705827#0 -372335514 1231722480 1118486325#0 1118486325#1 1118486325#2 1330117300 1238502000 1273359364 1118486326#0 1330117305 1329059766 1231937683 1118486328#0 1118486328#1 1073705819 1324597558 1092087672#0 1231722482 -58654498#1 141180079#0 141180079#1 -97676931 1073705832#0 71793600" />
    </vehicle>
    <vehicle id="changfeng30_2_15" type="veh_passenger" depart="0.625" departPos="random_free" arrivalPos="17.60" departLane="best" departSpeed="max">
        <route edges="-177811579#0 142638060#1 142638060#2 -109691095 1330117305 1329059766 1231937683 1118486328#0 1118486328#1 1073705819 1324597558 1092087672#0 1231722482 1118804255 1073705831 1324597546 1118486327#0 1118486327#1 1231722480 1118486325#0 1326094892 1337777328#0 765716306 1073705828#1 1337777328#0 1337777328#1 1073705822 687003612#0 225372591 -225372590#1" />
    </vehicle>
    <vehicle id="changfeng30_2_16" type="veh_passenger" depart="0.667" departPos="random_free" arrivalPos="54.50" departLane="best" departSpeed="max">
        <route edges="103783038 1118486327#0 1118486327#1 1231722480 1118486325#0 1118486325#1 1118486325#2 -1330117304#1 -1324597544 -240679753#1 -240679753#0 -1073798761 -1073705826 -1073798764#2 -1073798764#0 -1073705824#1 -1073705824#0 225378733 1324597560 1329059764 1118486325#0 1118486325#1 1118486325#2 44418748#0 -240679755 -142638060#1 -142638060#0 1167550617#0 142638060#1 142638060#2 -109691095 1330117305 1329059766 1231937683 1118486328#0 1118486328#1 109691114#0 109691114#1 1073705829#0 1073705829#1 687003610#0 687003610#1" />
    </vehicle>
    <vehicle id="changfeng30_2_17" type="veh_passenger" depart="0.708" departPos="random_free" arrivalPos="20.31" departLane="best" departSpeed="max">
        <route edges="-687003613#3 -687003613#2 -687003613#1 -687003613#0 1167550617#0 142638060#1 142638060#2 -109691095 1330117305 1329059766 1231937683 1118486328#0 1118486328#1 109691114#0 109691114#1 -177811577#1 -177811577#0 -372335514 1231722480 1118486325#0 1118486325#1 1118486325#2 1330117300 1238502000 1273359364 1118486326#0 44418748#0 -240679755 -142638060#1 142638060#1 142638060#2" />
    </vehicle>
    <vehicle id="changfeng30_2_18" type="veh_passenger" depart="0.750" departPos="random_free" arrivalPos="53.25" departLane="best" departSpeed="max">
        <route edges="177811577#0 177811577#1 1073705829#0 1073705829#1 -687003612#2 -687003612#1 -687003612#0 -1073705822 -813902631#2 -813902631#0 -240679753#1 -240679753#0 -1073798761 -1073705826 -1073798764#2 -1073798764#0 -1073705824#1 -1073705824#0 225378733 1073705822 687003612#0 687003612#1 687003612#2 687003610#0 687003610#1 687003610#2 -1337777339 -1163003870#1 -1163003870#0 -1231722483 -1231722484 1231722484 1231722483 1163003870#0 1163003870#1 1073705821 1330117302#0 1330117302#1 103783038 1118486327#0 1118486327#1 1231722480 1118486325#0 1118486325#1 1118486325#2 44418748#0 -240679755 -142638060#1 -142638060#0 -1167550619#2 -687003614#0 -687003615 1270411373#1 1270581695#0 1270581695#1 1270411370 1275296704#0 1275296704#1" />
    </vehicle>
    <vehicle id="changfeng30_2_19" type="veh_passenger" depart="0.792" departPos="random_free" arrivalPos="8.67" departLane="best" departSpeed="max">
        <route edges="1337777339 -1337777339 1073705821 -687003612#2 -687003612#1 -687003612#0 -1073705822 1324597560 -1326094893 1337777328#0 765716306 1073705828#1 1337777328#0 1337777328#1 1073705822 336885597 225372590#0 225372590#1 225372590#2 225372592#2 225372592#3 -225372590#0 -336885597 687003612#0 687003612#1 687003612#2 1330117302#0 1330117302#1 103783038 1073705819 -97676932#1 -97676932#0 -1478728470#4 1478728471#0 -1478728475 1478728471#3 1478728471#4" />
    </vehicle>
    <vehicle id="changfeng30_2_20" type="veh_passenger" depart="0.833" departPos="random_free" arrivalPos="7.59" departLane="best" departSpeed="max">
        <route edges="1073705824#0 -1073705824#0 225378733 1073705822 687003612#0 225372591 -225372591 687003612#1 687003612#2 1330117302#0 1330117302#1 -157810675#2 -157810675#1 -157810675#0 1324597546 1118486327#0 1118486327#1 1231722480 1118486325#0 1326094892 1337777328#0 1337777328#1 134667923" />
    </vehicle>
    <vehicle id="changfeng30_2_21" type="veh_passenger" depart="0.875" departPos="random_free" arrivalPos="102.99" departLane="best" departSpeed="max">
        <route edges="-687003613#0 1167550617#0 142638060#1 142638060#2 -109691095 1330117305 1329059766 1231937683 1118486328#0 1118486328#1 109691114#0 109691114#1 103783038 1073705819 1324597558 1092087672#0 1231722482 -58654498#1 141180079#0 141180079#1 -97676931 1073705832#0 -1073705832#0 97676931 -141180079#1 -141180079#0 58654498#1 1118804255 1073705831 1324597558" />
    </vehicle>
    <vehicle id="changfeng30_2_22" type="veh_passenger" depart="0.917" departPos="random_free" arrivalPos="65.09" departLane="best" departSpeed="max">
        <route edges="-1163003870#1 -1163003870#0 -1231722483 -1231722484 1231722484 1231722483 1163003870#0 1163003870#1 1073705821 1330117302#0 1330117302#1 103783038 1118486327#0 1118486327#1 1231722480 1118486325#0 1118486325#1 1118486325#2 44418748#0 -240679755 -142638060#1 -142638060#0 -1167550619#2 -687003614#0 -687003615 1270411373#1 1270581695#0 1270581695#1 -93173515#1 1478728470#0 1478728470#1 -1478728472 -1478728471#4 -1478728471#3 1478728475 -1478728471#0 1478728470#4 44418751 97676932#1 1324597546 109691114#0 109691114#1 -177811577#1 489493508#0 489493508#1 489493508#2 489493508#3 489493508#4 489493512" />
    </vehicle>
    <vehicle id="changfeng30_2_23" type="veh_passenger" depart="0.958" departPos="random_free" arrivalPos="0.60" departLane="best" departSpeed="max">
        <route edges="-58654498#1 58654498#1 1118804255 1073705831 1324597546 1118486327#0 1118486327#1 1231722480 1118486325#0 1326094892 1337777328#0 1337777328#1 958876930 -1073705824#0 -336885594 336885594 1073705824#0 -1073705824#0 225378733 1073705822 -1073705827#3 -1073705827#2 -1073705827#1 -489493509 489493508#3 489493508#4 489493508#5 1073705827#2 1073705827#3 -1073705822 958876930 1073705824#1 1073798764#0" />
    </vehicle>
    <vehicle id="changfeng30_2_24" type="veh_passenger" depart="1.000" departPos="random_free" arrivalPos="11.12" departLane="best" departSpeed="max">
        <route edges="1231722479#0 1231722479#1 372335514 -1231937693 -1231937694 -1231937692 1231937692 1231937694 1231937693 177811577#0 177811577#1 1073705829#0 1073705829#1 -687003612#2 -489493511#1 -489493512 -489493508#4 -489493508#3 -489493508#2" />
    </vehicle>
    <vehicle id="changfeng30_2_25" type="veh_passenger" depart="1.042" departPos="random_free" arrivalPos="138.73" departLane="best" departSpeed="max">
        <route edges="-97676932#0 -1478728470#4 1478728470#4 44418751 97676932#1 1324597546 1118486327#0 1118486327#1 1118486328#0 1118486328#1 1073705819 -97676932#1 -97676932#0 -1478728470#4 -1478728470#3 -1478728470#2 -1478728470#1 -1478728470#0 93173515#1 1270411370 1270411355 687003614#0 687003614#1 1167550617#0 142638060#1 142638060#2 -109691095 -1330117304#1 -1324597544 -240679753#1 -240679753#0 -1073798761 -1073705826 -1073798764#2 -1073798764#0 -1073705824#1" />
    </vehicle>
    <vehicle id="changfeng30_2_26" type="veh_passenger" depart="1.083" departPos="random_free" arrivalPos="87.57" departLane="best" departSpeed="max">
        <route edges="1478728471#1 -1478728471#1 -1478728471#0 1478728470#4 44418751 97676932#1 1324597546 1118486327#0 1118486327#1 1231722480 1118486325#0 1326094892 1337777328#0 1337777328#1 958876930 1073705824#1 1073798764#0 1073798764#2 1073705826 1073798761 240679753#0 240679753#1 1324597544 1330117304#0 1330117305 1329059766 1231937683 1118486328#0 1118486328#1 1073705819 1324597558 1092087672#0 1231722482 -58654498#1 141180079#0 141180079#1 -97676931 1073705832#0 1073705832#1 -62055779#2 -62055779#0 62055779#0 62055779#1 -1073705832#2 -1073705832#0 97676931 -141180079#1 -141180079#0 58654498#1 1118804255 1073705831 1324597546 1118486327#0 1118486327#1 1231722480 1118486325#0 1118486325#1 225277348 225277345#1 -177811579#2 -177811579#1 -177811579#0" />
    </vehicle>
    <vehicle id="changfeng30_2_27" type="veh_passenger" depart="1.125" departPos="random_free" arrivalPos="3.01" departLane="best" departSpeed="max">
        <route edges="1073705822 687003612#0 687003612#1 687003612#2 1330117302#0 1330117302#1 103783038 1073705819 1324597558 1092087672#0 1231722482 -58654498#1 141180079#0 141180079#1 -97676931 1073705832#0 1073705832#1 -62055779#2 -62055779#0 62055779#0 62055779#1 -62055779#2 -62055779#0 62055779#0 62055779#1 -1073705832#2 -1073705832#0 97676931 -141180079#1 -141180079#0 58654498#1 1118804255 1073705831 1324597546 1118486327#0 1118486327#1 1231722480 1118486325#0 1326094892 1326094893 -1326094893" />
    </vehicle>
    <vehicle id="changfeng30_2_28" type="veh_passenger" depart="1.167" departPos="random_free" arrivalPos="38.24" departLane="best" departSpeed="max">
        <route edges="-1073705826 -1073798764#2 -1073798764#0 -1073705824#1 -1073705824#0 225378733 1324597560 1329059764 1118486325#0 1118486325#1 1118486325#2 44418748#0 -240679755 -142638060#1 -142638060#0 1167550616#0 687003613#1 687003613#2 -1515352060 -225279017#1 -225279017#0 687003614#1 1167550617#0 142638060#1 142638060#2 -109691095 -1330117304#1 -1324597544 -240679753#1 -240679753#0 -1073798761 -1073705826 -1073798764#2 -1073798764#0 -1073705824#1 -1073705824#0 225378733 1073705822 -1073705827#3 1073705827#3" />
    </vehicle>
    <vehicle id="changfeng30_2_29" type="veh_passenger" depart="1.208" departPos="random_free" arrivalPos="41.62" departLane="best" departSpeed="max">
        <route edges="1270411370 1270411355 687003614#0 225279017#0 225279017#1 1515352060 -687003613#2 -687003613#1 -687003613#0 1167550617#0 142638060#1 142638060#2 -109691095 1330117305 1329059766 1231937683 372335514 1073705827#0 -489493509 489493508#3 489493508#4 489493512 489493511#1 687003612#2 1330117302#0 1330117302#1 103783038 1073705820" />
    </vehicle>
    <vehicle id="changfeng30_2_30" type="veh_passenger" depart="1.250" departPos="random_free" arrivalPos="5.12" departLane="best" departSpeed="max">
        <route edges="-1073705824#0 225378733 1324597560 1329059764 1118486325#0 1118486325#1 1118486325#2 44418748#0 -240679755 -142638060#1 -142638060#0 1167550616#0 687003613#1 687003613#2 -1515352060 -225279017#1 -225279017#0 687003614#1 1167550617#0 142638060#1 142638060#2 -109691095 1330117305 1329059766 1231937683 1118486328#0 1118486328#1 1073705819 1324597558 1092087672#0 1231722482 -58654498#1 141180079#0 141180079#1 -141180079#1 -141180079#0 58654498#1 1118804255 1073705831 1324597546 109691114#0 109691114#1 1073705829#0 1073705829#1 687003610#0 225372592#0 225372592#1 -225372592#1" />
    </vehicle>
    <vehicle id="changfeng30_2_31" type="veh_passenger" depart="1.292" departPos="random_free" arrivalPos="8.29" departLane="best" departSpeed="max">
        <route edges="225372590#0 -225372590#0 -336885597 -1073705827#3 -1073705827#2 -1073705827#1 -1073705827#0 -372335514 1231722480 1118486325#0 1118486325#1 225277348 225277345#1 -177811579#2 -177811579#1 -177811579#0 142638060#1 142638060#2 -109691095 1330117305 1329059766 1231937683 372335514 1073705827#0 -489493509 489493509 -1073705827#0 -372335514 1118486328#0 1118486328#1 1073705819 1324597558 1092087672#0 1231722482 -58654498#1 141180079#0 141180079#1 141180079#2" />
    </vehicle>
    <vehicle id="changfeng30_2_32" type="veh_passenger" depart="1.333" departPos="random_free" arrivalPos="11.55" departLane="best" departSpeed="max">
        <route edges="-1073705827#3 1073705827#3 336885597 225372590#0 225372590#1 225372590#2 225372592#2 225372592#3 -225372590#0 -336885597 -1073705827#3 -1073705827#2 -1073705827#1 -1073705827#0 -372335514 1231722480 1118486325#0 1118486325#1 1118486325#2 44418748#0 -240679755 -142638060#1 -142638060#0 -1167550619#2 -687003614#0 -687003615 1270411373#1 1270581695#0 1270581695#1 1270411370 1270411355 687003614#0 687003614#1 1167550617#0 142638060#1 142638060#2 -109691095 1330117305 1329059766 1231937683 372335514 1073705827#0 1073705827#1 1073705827#2 1073705827#3 336885597 225372590#0 -225372592#3 -225372592#2 -225372592#1" />
    </vehicle>
    <vehicle id="changfeng30_2_33" type="veh_passenger" depart="1.375" departPos="random_free" arrivalPos="8.46" departLane="best" departSpeed="max">
        <route edges="-687003613#2 -687003613#1 -687003613#0 1167550617#0 142638060#1 142638060#2 1275296713 -1275296713 -109691095 1330117305 1329059766 1231937683 1118486328#0 1118486328#1 109691114#0 109691114#1 -177811577#1 489493508#0 489493508#1 489493508#2 489493508#3 489493508#4" />
    </vehicle>
    <vehicle id="changfeng30_2_34" type="veh_passenger" depart="1.417" departPos="random_free" arrivalPos="16.77" departLane="best" departSpeed="max">
        <route edges="336728144 1270581695#1 1270411370 1270411355 687003614#0 687003614#1 1167550617#0 142638060#1 142638060#2 -109691095 1330117305 1329059766 1231937683 372335514 1073705827#0 1073705827#1 1073705827#2 1073705827#3 336885597 225372590#0 -225372592#3 -225372592#2 -225372590#2 -225372591 -687003612#0 -1073705822 958876930 1073705824#1 1073798764#0 1073798764#2 1073705826 1073798761 240679753#0 240679753#1 1324597544 1330117304#0 44418748#0 -240679755 -142638060#1 -142638060#0 -1167550619#2 225279017#0 225279017#1 1515352060" />
    </vehicle>
    <vehicle id="changfeng30_2_35" type="veh_passenger" depart="1.458" departPos="random_free" arrivalPos="126.41" departLane="best" departSpeed="max">
        <route edges="1270581695#0 1270581695#1 1270411370 1270411355 687003614#0 687003614#1 1167550617#0 142638060#1 142638060#2 -109691095 1330117305 1329059766 1231937683 372335514 1073705827#0 -489493509 489493508#3 489493508#4 489493508#5 -1073705827#1 -1073705827#0 -372335514 1231722480 1118486325#0 1118486325#1 1118486325#2 44418748#0 -240679755 -142638060#1 -142638060#0 1167550616#0 687003613#1 687003613#2 -1515352060 -225279017#1 -225279017#0 687003614#1 1167550617#0 142638060#1 142638060#2 -109691095 1330117305 1329059766 1231937683 372335514 1073705827#0 -1073705827#0" />
    </vehicle>
    <vehicle id="changfeng30_2_36" type="veh_passenger" depart="1.500" departPos="random_free" arrivalPos="136.90" departLane="best" departSpeed="max">
        <route edges="-1275296713 -109691095 1330117305 1329059766 1118486325#0 1118486325#1 1118486325#2 1330117305 1329059766 1231937683 1118486328#0 1118486328#1 1073705819 -97676932#1 -97676932#0 -1478728470#4 1478728471#0 1478728471#1 1478728471#2 1478728475 -1478728471#0 1478728470#4 44418751 97676932#1 1324597546 109691114#0 109691114#1 1073705829#0 1073705829#1 -687003612#2 -687003612#1 225372591" />
    </vehicle>
    <vehicle id="changfeng30_2_37" type="veh_passenger" depart="1.542" departPos="random_free" arrivalPos="90.42" departLane="best" departSpeed="max">
        <route edges="1231937692 1231937694 1231937693 177811577#0 177811577#1 103783038 1118486327#0 1118486327#1 1118486328#0 1118486328#1 1073705819 -97676932#1 -97676932#0 -1478728470#4 1478728471#0 -1478728475 1478728471#3 1478728471#4 1478728472 -1478728470#1 -1478728470#0 93173515#1 1270411370 1270411355 687003614#0 687003614#1 1167550617#0 142638060#1 142638060#2 -109691095 1330117305 1326094892 1337777328#0 1337777328#1 958876930 1073705824#1" />
    </vehicle>
    <vehicle id="changfeng30_2_38" type="veh_passenger" depart="1.583" departPos="random_free" arrivalPos="21.71" departLane="best" departSpeed="max">
        <route edges="-240679755 -142638060#1 -142638060#0 -1167550619#2 -687003614#0 1330557846 1270411371#0 336728144 1270581695#1 1270411370 1270411355 687003614#0 687003614#1 1167550617#0 142638060#1 142638060#2 -109691095 1330117305 1329059766 1231937683 372335514 1073705827#0 1073705827#1 -489493508#5 -489493508#4 -489493508#3 489493509 1073705827#1 1073705827#2 1073705827#3 -1073705822 -813902631#2 -813902631#0 -240679753#1 -240679753#0 -1073798761 -1073705826 -1073798764#2" />
    </vehicle>
    <vehicle id="changfeng30_2_39" type="veh_passenger" depart="1.625" departPos="random_free" arrivalPos="217.77" departLane="best" departSpeed="max">
        <route edges="-489493508#1 -489493508#0 177811577#1 1073705829#0 1073705829#1 -687003612#2 -687003612#1 -687003612#0 -1073705822 -813902631#2 -813902631#0 1324597544 1330117304#0 1330117305 1329059766 1231937683 1118486328#0 1118486328#1 1073705819 1324597558 1027408000#0 1027408000#1 1073705831" />
    </vehicle>
    <vehicle id="changfeng30_2_40" type="veh_passenger" depart="1.667" departPos="random_free" arrivalPos="65.92" departLane="best" departSpeed="max">
        <route edges="-225372592#0 687003610#1 687003610#2 -1337777339 1073705821 1330117302#0 1330117302#1 103783038 1073705819 1324597546 109691114#0 109691114#1 1073705829#0 1073705829#1 -687003612#2 -687003612#1 -687003612#0 336885597 225372590#0 225372590#1 -225372591 687003612#1 687003612#2 1330117302#0 1330117302#1 103783038 1073705819 1324597558 1092087672#0 1231722482 -58654498#1 141180079#0 141180079#1 -141180079#1 -141180079#0" />
    </vehicle>
    <vehicle id="changfeng30_2_41" type="veh_passenger" depart="1.708" departPos="random_free" arrivalPos="53.45" departLane="best" departSpeed="max">
        <route edges="1073705824#0 -1073705824#0 225378733 1073705822 687003612#0 687003612#1 -489493511#1 -489493512 489493508#5 -1073705827#1 -1073705827#0 -372335514 1231722480 1118486325#0 1118486325#1 1118486325#2 44418748#0 -109691095 1330117305 1329059766 1231937683 372335514 1073705827#0 -489493509" />
    </vehicle>
    <vehicle id="changfeng30_2_42" type="veh_passenger" depart="1.750" departPos="random_free" arrivalPos="93.73" departLane="best" departSpeed="max">
        <route edges="103783034#1 1027408000#1 1073705831 1324597546 1118486327#0 1118486327#1 1231722480 1118486325#0 1118486325#1 1118486325#2 44418748#0 -240679755 -142638060#1 -142638060#0 -1167550619#2 -687003614#0 -687003615 1270411373#1 336728142 1270411371#0 336728144 1270581695#1 1270411370 1270411355 687003614#0 687003614#1 1167550617#0 142638060#1 142638060#2 -109691095 1330117305 1329059766 1231937683 1118486328#0 1118486328#1 109691114#0 109691114#1 -157810675#2 -157810675#1 -157810675#0 1324597546 1118486327#0 1118486327#1 1231722480 1118486325#0 1326094892 -1073705828#1 -765716306" />
    </vehicle>
    <vehicle id="changfeng30_2_43" type="veh_passenger" depart="1.792" departPos="random_free" arrivalPos="28.70" departLane="best" departSpeed="max">
        <route edges="1027408000#1 1073705831 1324597546 109691114#0 109691114#1 -157810675#2 -157810675#1 -157810675#0 1324597546 109691114#0 109691114#1 1073705829#0 1073705829#1 687003610#0 225372592#0 225372592#1 -225372590#2 -225372590#1 -225372592#3 -225372592#2 -225372590#2 -225372590#1 -225372590#0 -336885597 -1073705827#3 -1073705827#2 -1073705827#1 -1073705827#0 -372335514 1231722480 1118486325#0 1118486325#1 1118486325#2" />
    </vehicle>
    <vehicle id="changfeng30_2_44" type="veh_passenger" depart="1.833" departPos="random_free" arrivalPos="32.39" departLane="best" departSpeed="max">
        <route edges="93173515#0 93173515#1 1270411370 1270411355 687003614#0 687003614#1 1167550617#0 142638060#1 142638060#2 -109691095 1330117305 1326094892 1337777328#0 1337777328#1 958876930 -1073705824#0 -336885594 336885594 1073705824#0 -1073705824#0 225378733 1324597560 1329059764 1231937683 1118486328#0 1118486328#1 1073705819 1324597558 1092087672#0 1231722482 -58654498#1 58654498#1 1118804255 1073705831 1324597546 1118486327#0 1118486327#1 1231722480 1118486325#0 1326094892 1337777328#0 1337777328#1 -813902631#2" />
    </vehicle>
    <vehicle id="changfeng30_2_45" type="veh_passenger" depart="1.875" departPos="random_free" arrivalPos="51.58" departLane="best" departSpeed="max">
        <route edges="62055779#1 -1073705832#2 -1073705832#0 97676931 -141180079#1 -141180079#0 58654498#1 1118804255 1073705831 1324597546 1118486327#0 1118486327#1 1231722480 1118486325#0 1326094892 1337777328#0 1337777328#1 958876930 -1073705824#0 225378733 1073705822 -1073705827#3 489493511#0 489493511#1 687003612#2 1330117302#0 1330117302#1 103783038 1118486327#0 1118486327#1 1231722480 1118486325#0 1118486325#1 225277348" />
    </vehicle>
    <vehicle id="changfeng30_2_46" type="veh_passenger" depart="1.917" departPos="random_free" arrivalPos="13.09" departLane="best" departSpeed="max">
        <route edges="-1073705832#0 97676931 -141180079#1 -141180079#0 58654498#1 1118804255 1073705831 -97676932#1 -97676932#0 -1478728470#4 1478728470#4 44418751 97676932#1 1324597546 109691114#0 109691114#1 -177811577#1 489493508#0 489493508#1 489493508#2 489493509 -1073705827#0 -372335514 1118486328#0 1118486328#1 1073705819 -97676932#1 -97676932#0 -1478728470#4 -1478728470#3 -1478728470#2" />
    </vehicle>
    <vehicle id="changfeng30_2_47" type="veh_passenger" depart="1.958" departPos="random_free" arrivalPos="17.51" departLane="best" departSpeed="max">