<?xml version='1.0' encoding='UTF-8'?>
<routes xmlns:xsi="http://www.w3.org/2001/XMLSchema-instance" xsi:noNamespaceSchemaLocation="http://sumo.dlr.de/xsd/routes_file.xsd">
    <vType id="veh_passenger" vClass="passenger" accel="2.6" decel="4.5" sigma="0.5" length="4.5" minGap="2.5" maxSpeed="15.555556" speedFactor="normc(1.00,0.10,0.70,1.30)" color="1,1,0" />
    <vehicle id="changfeng35_0_0" type="veh_passenger" depart="0.000" departPos="random_free" arrivalPos="48.21" departLane="best" departSpeed="max">
        <route edges="-1073705824#0 225378733 1324597560 1329059764 1118486325#0 1118486325#1 1118486325#2 44418748#0 -240679755 -142638060#1 -142638060#0 -1167550619#2 687003614#1 -1167550619#2 225279017#0 225279017#1 1515352060 -687003613#2" />
    </vehicle>
    <vehicle id="changfeng35_0_1" type="veh_passenger" depart="0.036" departPos="random_free" arrivalPos="1.10" departLane="best" departSpeed="max">
        <route edges="489493508#1 489493508#2 489493509 -1073705827#0 -372335514 1118486328#0 1118486328#1 109691114#0 109691114#1 1073705829#0 1073705829#1 687003610#0 225372592#0 225372592#1 -225372592#1 -225372592#0" />
    </vehicle>
    <vehicle id="changfeng35_0_2" type="veh_passenger" depart="0.071" departPos="random_free" arrivalPos="27.87" departLane="best" departSpeed="max">
        <route edges="-1167550619#2 687003614#1 1167550617#0 142638060#1 142638060#2 -109691095 -1330117304#1 -1324597544 813902631#0 813902631#2 1324597560 1329059764 1118486325#0 1118486325#1 1118486325#2 44418748#0 -240679755 -142638060#1 -142638060#0 -1167550619#2 -687003614#0 1330557846 1270411371#0 1270411371#1 -1270411370 -93173515#1 1478728470#0 1478728470#1 1478728470#2 1478728470#3 -1478728470#3" />
    </vehicle>
    <vehicle id="changfeng35_0_3" type="veh_passenger" depart="0.107" departPos="random_free" arrivalPos="8.42" departLane="best" departSpeed="max">
        <route edges="93173515#0 93173515#1 1270411370 1270411355 687003614#0 687003614#1 1167550617#0 142638060#1 142638060#2 1275296713 -1275296713 -240679755 -142638060#1 -142638060#0 1167550617#0 -142638060#0 -1167550619#2 -687003614#0 1330557846 1270411371#0 1270411371#1 336728116" />
    </vehicle>
    <vehicle id="changfeng35_0_4" type="veh_passenger" depart="0.143" departPos="random_free" arrivalPos="22.58" departLane="best" departSpeed="max">
        <route edges="1330117302#1 -177811577#1 -177811577#0 1073705827#0 1073705827#1 1073705827#2 1073705827#3 -1073705822 1324597560 1329059764 1118486325#0 1118486325#1 1118486325#2 44418748#0 -240679755 -142638060#1 -142638060#0 -1167550619#2 687003614#1 1167550617#0 142638060#1 142638060#2 -109691095 1330117300 1238502000 1273359364" />
    </vehicle>
    <vehicle id="changfeng35_0_5" type="veh_passenger" depart="0.179" departPos="random_free" arrivalPos="6.74" departLane="best" departSpeed="max">
        <route edges="-225372590#0 -336885597 -1073705822 958876930 1073705824#1 1073798764#0 1073798764#2 1073705826 1073798761 240679753#0 240679753#1 1324597544 1330117304#0 44418748#0 -240679755 -142638060#1 -142638060#0 -1167550619#2 687003614#1 1167550617#0 142638060#1 142638060#2 -109691095 1330117305 1329059766 1231937683 1118486328#0 1118486328#1 1073705819 -97676932#1 -97676932#0 -1478728470#4" />
    </vehicle>
    <vehicle id="changfeng35_0_6" type="veh_passenger" depart="0.214" departPos="random_free" arrivalPos="87.26" departLane="best" departSpeed="max">
        <route edges="-1275296704#0 1270411355 687003614#0 687003614#1 1167550617#0 177811579#0 177811579#1 177811579#2 -177811579#2 -177811579#1 -177811579#0 -142638060#0 -1167550619#2 -687003614#0 -687003615 1270411373#1 1270581695#0 1270581695#1 1270411370 1275296704#0" />
    </vehicle>
    <vehicle id="changfeng35_0_7" type="veh_passenger" depart="0.250" departPos="random_free" arrivalPos="221.46" departLane="best" departSpeed="max">
        <route edges="225372590#2 -225372592#1 -225372592#0 687003610#1 687003610#2 -1337777339 1073705821 -687003612#2 -687003612#1 -687003612#0 -1073705827#3 489493511#0 489493511#1 687003612#2 1330117302#0 1330117302#1 103783038 1118486327#0 1118486327#1 1231722480 1118486325#0 1118486325#1 225277348 225277345#1 -225277345#1" />
    </vehicle>
    <vehicle id="changfeng35_0_8" type="veh_passenger" depart="0.286" departPos="random_free" arrivalPos="6.66" departLane="best" departSpeed="max">
        <route edges="-1231937692 1329059764 1118486325#0 1118486325#1 1118486325#2 44418748#0 -240679755 -142638060#1 -142638060#0 1167550616#0 687003613#1 687003613#2 -1515352060 -225279017#1 -1515352061 -687003613#0 1167550617#0 142638060#1 142638060#2 -109691095 1330117305 1326094892 1337777328#0 1337777328#1 958876930 -1073705824#0 -336885594 336885594 1073705824#0" />
    </vehicle>
    <vehicle id="changfeng35_0_9" type="veh_passenger" depart="0.321" departPos="random_free" arrivalPos="54.27" departLane="best" departSpeed="max">
        <route edges="687003612#0 687003612#1 687003612#2 1330117302#0 1330117302#1 103783038 1073705819 1324597558 1092087672#0 1231722482 -58654498#1 58654498#1 1118804255 1073705831 1324597546 1118486327#0 1118486327#1 1231722480 1118486325#0 1326094892 1326094893 1231937692 1231937694 1231937693 -372335514 1118486328#0 1118486328#1 1073705819 -97676932#1 -97676932#0 -1478728470#4 -1478728470#3 -1478728473" />
    </vehicle>
    <vehicle id="changfeng35_0_10" type="veh_passenger" depart="0.357" departPos="random_free" arrivalPos="121.96" departLane="best" departSpeed="max">
        <route edges="1275296713 -1275296713 -109691095 1330117305 1329059766 1231937683 1118486328#0 1118486328#1 109691114#0 109691114#1 1073705829#0 1073705829#1 687003610#0 687003610#1 687003610#2 -1337777339 1073705821 1330117302#0 1330117302#1 -157810675#2 -157810675#1 -157810675#0 1324597546 1118486327#0 1118486327#1 1231722480 1118486325#0 1118486325#1 1118486325#2 -1330117304#1 -1324597544 -240679753#1 -240679753#0 -1073798761 -1073705826 -1073798764#2 -1073798764#0 -1073705824#1" />
    </vehicle>
    <vehicle id="changfeng35_0_11" type="veh_passenger" depart="0.393" departPos="random_free" arrivalPos="114.23" departLane="best" departSpeed="max">
        <route edges="1073705822 -1073705827#3 -1073705827#2 -1073705827#1 -1073705827#0 -372335514 1231722480 1118486325#0 1118486325#1 1118486325#2 44418748#0 -240679755 -142638060#1 -142638060#0 1167550617#0 142638060#1 142638060#2 -109691095 1330117305 1329059766 1231937683 1118486328#0 1118486328#1 109691114#0 109691114#1 1073705829#0 1073705829#1 687003610#0 687003610#1 687003610#2 -1337777339 -1163003870#1 -1163003870#0 -1231722483 -1231722484 1231722484 1231722483 1163003870#0 1163003870#1 1073705821 1330117302#0 1330117302#1 103783038 1118486327#0 1118486327#1 1231722480 1118486325#0 1118486325#1 1118486325#2 44418748#0 -240679755 -142638060#1 -142638060#0 -1167550619#2 -687003614#0 -687003615 1270411373#1 1270581695#0 1270581695#1 1270411370 1275296704#0 1275296704#1 -1275296704#1 -1275296704#0" />
    </vehicle>
    <vehicle id="changfeng35_0_12" type="veh_passenger" depart="0.429" departPos="random_free" arrivalPos="29.75" departLane="best" departSpeed="max">
        <route edges="-1478728472 -1478728471#4 1478728473 1478728470#3 1478728470#4 44418751 97676932#1 1324597558 1092087672#0 1231722482 -58654498#1 141180079#0 141180079#1 -97676931 1073705832#0 -1073705832#0 97676931 -141180079#1 -141180079#0 58654498#1 1118804255 1073705831 1324597546 109691114#0 109691114#1 1073705829#0 1073705829#1 687003610#0 687003610#1 687003610#2 -1337777339 1073705821" />
    </vehicle>
    <vehicle id="changfeng35_0_13" type="veh_passenger" depart="0.464" departPos="random_free" arrivalPos="40.29" departLane="best" departSpeed="max">
        <route edges="-240679755 -142638060#1 142638060#1 142638060#2 -109691095 1330117305 1329059766 1231937683 372335514 1073705827#0 1073705827#1 1073705827#2 -1073705827#2 -1073705827#1 -1073705827#0 177811577#0 177811577#1 103783038 1118486327#0 1118486327#1 1231722480 1118486325#0 1118486325#1 1118486325#2 44418748#0 -240679755 -142638060#1 -142638060#0 -1167550619#2 -687003614#0 1330557846 1270411371#0" />
    </vehicle>
    <vehicle id="changfeng35_0_14" type="veh_passenger" depart="0.500" departPos="random_free" arrivalPos="2.79" departLane="best" departSpeed="max">
        <route edges="489493508#3 489493508#4 489493512 489493511#1 -687003612#1 225372591 -225372590#1 -225372590#0 -336885597 -1073705827#3 -1073705827#2 -1073705827#1 -1073705827#0 -372335514 1231722480 1118486325#0 1329059766" />
    </vehicle>
    <vehicle id="changfeng35_0_15" type="veh_passenger" depart="0.536" departPos="random_free" arrivalPos="109.03" departLane="best" departSpeed="max">
        <route edges="68992985#0 68992985#1 68992985#2 -1275296713 -109691095 1330117305 1326094892 1337777328#0 1337777328#1 958876930 1073705824#1 1073798764#0 1073798764#2 1073705826 1073798761 240679753#0 240679753#1 1324597544 1330117304#0 44418748#0 -240679755 -142638060#1 -142638060#0 -1167550619#2 225279017#0 -1515352061 -687003613#0 1167550617#0 142638060#1 142638060#2 -240679755" />
    </vehicle>
    <vehicle id="changfeng35_0_16" type="veh_passenger" depart="0.571" departPos="random_free" arrivalPos="8.36" departLane="best" departSpeed="max">
        <route edges="336885594 225378733 1324597560 1329059764 1118486325#0 1118486325#1 1118486325#2 44418748#0 -240679755 -142638060#1 -142638060#0 1167550616#0 687003613#1 687003613#2 -1515352060 -225279017#1 -225279017#0 687003614#1 1167550617#0 142638060#1 142638060#2 -109691095 1330117300 1238502000 1273359364 1118486326#0 44418748#0 -240679755 -142638060#1 -142638060#0 1167550616#0 687003613#1" />
    </vehicle>
    <vehicle id="changfeng35_0_17" type="veh_passenger" depart="0.607" departPos="random_free" arrivalPos="14.12" departLane="best" departSpeed="max">
        <route edges="-1073798761 -1073705826 -1073798764#2 -1073798764#0 -1073705824#1 -1073705824#0 225378733 1324597560 1329059764 1118486325#0 1118486325#1 1118486325#2 44418748#0 -240679755 -142638060#1 -142638060#0 1167550617#0 142638060#1 142638060#2 -109691095 1330117305 1329059766 1231937683 1118486328#0 1118486328#1 109691114#0 109691114#1 1073705829#0 1073705829#1 1330117302#0" />
    </vehicle>
    <vehicle id="changfeng35_0_18" type="veh_passenger" depart="0.643" departPos="random_free" arrivalPos="58.57" departLane="best" departSpeed="max">
        <route edges="687003612#2 1330117302#0 1330117302#1 103783038 1118486327#0 1118486327#1 372335514 1073705827#0 1073705827#1 1073705827#2 1073705827#3 687003612#0 687003612#1 -687003612#1 -687003612#0 -1073705822 958876930 1073705824#1" />
    </vehicle>
    <vehicle id="changfeng35_0_19" type="veh_passenger" depart="0.679" departPos="random_free" arrivalPos="107.21" departLane="best" departSpeed="max">
        <route edges="687003613#1 687003613#2 -687003613#2 -687003613#1 -687003613#0 1167550617#0 142638060#1 142638060#2 -109691095 1330117305 1329059766 1231937683 372335514 1073705827#0 1073705827#1 1073705827#2 1073705827#3 336885597 225372590#0 -225372592#3 -225372592#2 -225372592#1 -225372592#0 687003610#1 687003610#2 -1337777339 1073705821 -687003612#2 -489493511#1 489493511#1 -687003612#1" />
    </vehicle>
    <vehicle id="changfeng35_0_20" type="veh_passenger" depart="0.714" departPos="random_free" arrivalPos="24.53" departLane="best" departSpeed="max">
        <route edges="1073705822 687003612#0 687003612#1 687003612#2 1330117302#0 1330117302#1 103783038 1073705819 157810675#0 157810675#1 157810675#2 103783038 1073705819 1324597558 1092087672#0 1231722482 -58654498#1 141180079#0 141180079#1 -141180079#1 -141180079#0 58654498#1 1118804255 1073705831 1324597546 1118486327#0 1118486327#1 1231722480 1118486325#0 1118486325#1 1118486325#2 1330117300 1238502000" />
    </vehicle>
    <vehicle id="changfeng35_0_21" type="veh_passenger" depart="0.750" departPos="random_free" arrivalPos="42.91" departLane="best" departSpeed="max">
        <route edges="-1073705828#0 -1324597544 813902631#0 813902631#2 1073705822 687003612#0 687003612#1 687003612#2 687003610#0 687003610#1 687003610#2 -1337777339 1073705821 1330117302#0 1330117302#1 103783038 1118486327#0 1118486327#1 1231722480 1118486325#0 1326094892 1337777328#0 1337777328#1 1073705822 687003612#0 687003612#1 687003612#2 1330117302#0" />
    </vehicle>
    <vehicle id="changfeng35_0_22" type="veh_passenger" depart="0.786" departPos="random_free" arrivalPos="11.91" departLane="best" departSpeed="max">
        <route edges="-813902631#2 -813902631#0 1324597544 1330117304#0 44418748#0 -240679755 -142638060#1 -142638060#0 -1167550619#2 -687003614#0 -687003615 1270411373#1 1270581695#0 1270581695#1 1270411370 -1270411370 -93173515#1 1478728470#0 1478728470#1 1478728470#2 -1478728473 -1478728471#3 1478728475 -1478728471#0 1478728470#4 44418751 97676932#1 1324597546 109691114#0 109691114#1 1073705829#0 1073705829#1 687003610#0 687003610#1 687003610#2" />
    </vehicle>
    <vehicle id="changfeng35_0_23" type="veh_passenger" depart="0.821" departPos="random_free" arrivalPos="31.50" departLane="best" departSpeed="max">
        <route edges="-1073705827#1 -1073705827#0 -372335514 1118486328#0 1118486328#1 1073705819 1324597558 1092087672#0 103783034#1 1027408000#1 1073705831 1324597546 1118486327#0 1118486327#1 -1231722479#1 -1231722479#0 1231722479#0 1231722479#1 1118486328#0 1118486328#1 1073705819 -97676932#1 -97676932#0 -1478728470#4 1478728471#0 -1478728475 1478728471#3 1478728473" />
    </vehicle>
    <vehicle id="changfeng35_0_24" type="veh_passenger" depart="0.857" departPos="random_free" arrivalPos="1.90" departLane="best" departSpeed="max">
        <route edges="813902631#2 1073705822 336885597 225372590#0 225372590#1 225372590#2 225372592#2 225372592#3 -225372590#0 -336885597 -1073705827#3 -1073705827#2 -1073705827#1 -1073705827#0 -372335514 1231722480 1118486325#0 1118486325#1 225277348 225277345#1 -177811579#2 -177811579#1 -177811579#0 -142638060#0 -1167550619#2 -687003614#0 -687003615 1270411373#1 1270581695#0 1270581695#1 1270411370" />
    </vehicle>
    <vehicle id="changfeng35_0_25" type="veh_passenger" depart="0.893" departPos="random_free" arrivalPos="79.80" departLane="best" departSpeed="max">
        <route edges="-1326094893 1326094893 1329059764 1231937683 1118486328#0 1118486328#1 1073705819 1324597558 1092087672#0 1231722482 -58654498#1 141180079#0 141180079#1 -97676931 1073705832#0 1073705832#1 -62055779#2 -62055779#0 62055779#0 62055779#1 -1073705832#2 -1073705832#0 97676931 -141180079#1 -141180079#0 58654498#1 1118804255 1073705831 -97676932#1 -97676932#0 -1478728470#4 1478728471#0 -1478728475 1478728475" />
    </vehicle>
    <vehicle id="changfeng35_0_26" type="veh_passenger" depart="0.929" departPos="random_free" arrivalPos="1.16" departLane="best" departSpeed="max">
        <route edges="-1275296704#0 1270411355 687003614#0 687003614#1 1167550617#0 142638060#1 142638060#2 1275296713 -1275296713 -109691095 1330117305 1329059766 1231937683 1118486328#0 1118486328#1 109691114#0 109691114#1 -157810675#2 -157810675#1 -157810675#0 1324597558 1027408000#0 1027408000#1" />
    </vehicle>
    <vehicle id="changfeng35_0_27" type="veh_passenger" depart="0.964" departPos="random_free" arrivalPos="20.43" departLane="best" departSpeed="max">
        <route edges="-225372592#1 -225372592#0 687003610#1 687003610#2 -1337777339 1073705821 -687003612#2 -687003612#1 -687003612#0 -1073705822 1324597560 1231937692 1231937694 1231937693 -372335514 1118486328#0 1118486328#1 1073705819 -97676932#1 -97676932#0 -1478728470#4 1478728470#4 44418751 97676932#1 1324597546 1118486327#0 1118486327#1 1231722480 1118486325#0 1118486325#1 1118486325#2 -1330117304#1 -1324597545" />
    </vehicle>
    <vehicle id="changfeng35_0_28" type="veh_passenger" depart="1.000" departPos="random_free" arrivalPos="10.05" departLane="best" departSpeed="max">
        <route edges="489493509 -1073705827#0 -372335514 1118486328#0 1118486328#1 1073705819 157810675#0 157810675#1 157810675#2 103783038 1073705819 -97676932#1 -97676932#0 -1478728470#4 -1478728470#3 -1478728470#2 -1478728470#1 -1478728470#0 1478728470#0 1478728470#1 1478728470#2" />
    </vehicle>
    <vehicle id="changfeng35_0_29" type="veh_passenger" depart="1.036" departPos="random_free" arrivalPos="112.24" departLane="best" departSpeed="max">
        <route edges="-1515352061 -687003613#0 1167550617#0 142638060#1 142638060#2 -109691095 1330117305 1329059766 1231937683 1118486328#0 1118486328#1 109691114#0 109691114#1 -157810675#2 -157810675#1 -157810675#0 1324597546 1118486327#0 1118486327#1 1231722480 1118486325#0 1118486325#1 1118486325#2 44418748#0 -240679755 -142638060#1 -142638060#0 -1167550619#2 225279017#0 -1515352061 -687003613#0 -1167550619#2 -687003614#0 -687003615 1270411373#1 1270581695#0 1270581695#1 -93173515#1 1478728470#0 1478728470#1 1478728470#2 1478728470#3 1478728470#4 44418751 97676932#1" />
    </vehicle>
    <vehicle id="changfeng35_0_30" type="veh_passenger" depart="1.071" departPos="random_free" arrivalPos="42.35" departLane="best" departSpeed="max">
        <route edges="62055779#1 -1073705832#2 -1073705832#0 97676931 -141180079#1 -141180079#0 58654498#1 1118804255 1073705831 1324597546 109691114#0 109691114#1 1073705829#0 1073705829#1 687003610#0 687003610#1 687003610#2 -1337777339 1073705821 1330117302#0 1330117302#1 1073705829#0 1073705829#1 -687003612#2 -687003612#1 225372591 225372590#2" />
    </vehicle>
    <vehicle id="changfeng35_0_31" type="veh_passenger" depart="1.107" departPos="random_free" arrivalPos="0.99" departLane="best" departSpeed="max">
        <route edges="489493508#1 489493508#2 489493508#3 489493508#4 489493512 489493511#1 687003612#2 687003610#0 687003610#1 687003610#2 -1337777339 -1163003870#1 -1163003870#0 -1231722483 -1231722484 1231722484 1231722483 1163003870#0 1163003870#1 1073705821 1330117302#0 1330117302#1 103783038 1073705819 157810675#0 157810675#1" />
    </vehicle>
    <vehicle id="changfeng35_0_32" type="veh_passenger" depart="1.143" departPos="random_free" arrivalPos="17.52" departLane="best" departSpeed="max">
        <route edges="177811578 1073705828#0 1073705828#1 1326094893 1231937692 1231937694 1231937693 177811577#0 489493508#0 489493508#1 489493508#2 489493509 -1073705827#0 -372335514 1118486328#0 1118486328#1 1073705819 157810675#0 157810675#1 157810675#2 1073705829#0 1073705829#1 -687003612#2 -687003612#1 -687003612#0 -1073705822 958876930 -1073705824#0 -336885594 336885594 1073705824#0" />
    </vehicle>
    <vehicle id="changfeng35_0_33" type="veh_passenger" depart="1.179" departPos="random_free" arrivalPos="14.17" departLane="best" departSpeed="max">
        <route edges="-1073705826 -1073798764#2 -1073798764#0 -1073705824#1 -1073705824#0 225378733 1073705822 -1073705827#3 -1073705827#2 -489493508#5 -489493508#4 -489493508#3 -489493508#2 -489493508#1 -489493508#0 -177811577#0 -372335514 1231722480 1118486325#0 1118486325#1 1118486325#2 44418748#0 -240679755 -142638060#1 -142638060#0 1167550616#0 687003613#1 687003613#2 -1515352060 -225279017#1 -225279017#0 687003614#1 1167550617#0 142638060#1 142638060#2 -109691095 1330117300 1238502000 1238501991" />
    </vehicle>
    <vehicle id="changfeng35_0_34" type="veh_passenger" depart="1.214" departPos="random_free" arrivalPos="21.45" departLane="best" departSpeed="max">
        <route edges="-1073705827#1 -1073705827#0 -1231937693 -1231937694 -1231937692 1329059764 1231937683 1118486328#0 1118486328#1 1073705819 -97676932#1 -97676932#0 -1478728470#4 -1478728470#3 -1478728470#2 -1478728470#1 -1478728470#0 93173515#1 1270411370 1270411355 687003614#0 687003614#1 1167550617#0 177811579#0 177811579#1 177811579#2 225277345#2" />
    </vehicle>
    <vehicle id="changfeng35_0_35" type="veh_passenger" depart="1.250" departPos="random_free" arrivalPos="55.61" departLane="best" departSpeed="max">
        <route edges="-489493511#0 -1073705827#2 -1073705827#1 -1073705827#0 -1231937693 -1231937694 -1231937692 1329059764 1118486325#0 1118486325#1 1118486325#2 44418748#0 -240679755 -142638060#1 -142638060#0 -1167550619#2 -687003614#0 687003614#0 687003614#1 1167550617#0 142638060#1 142638060#2 -109691095 1330117305 1329059766 1231937683 1118486328#0 1118486328#1 1073705819 1324597558 1092087672#0 1231722482 -58654498#1 141180079#0 141180079#1 -97676931 1073705832#0 1073705832#1 1270581690#1" />
    </vehicle>
    <vehicle id="changfeng35_0_36" type="veh_passenger" depart="1.286" departPos="random_free" arrivalPos="100.69" departLane="best" departSpeed="max">
        <route edges="489493508#3 489493508#4 489493512 489493511#1 687003612#2 1330117302#0 1330117302#1 103783038 1073705819 -97676932#1 -97676932#0 -1478728470#4 1478728471#0 -1478728475 1478728471#3 1478728471#4 1478728471#5 -1478728470#0 93173515#1 1270411370 1270411355 687003614#0 687003614#1 1167550617#0 -142638060#0 -1167550619#2 -687003614#0 1330557846 1270411371#0 1270411371#1" />
    </vehicle>
    <vehicle id="changfeng35_0_37" type="veh_passenger" depart="1.321" departPos="random_free" arrivalPos="5.13" departLane="best" departSpeed="max">
        <route edges="-1478728471#5 1478728472 1478728470#2 1478728470#3 1478728470#4 44418751 97676932#1 -97676932#1 -97676932#0 -1478728470#4 1478728470#4 44418751 97676932#1 1324597546 109691114#0 109691114#1 1073705829#0 1073705829#1 -687003612#2 -687003612#1 687003612#1 687003612#2 1330117302#0 1330117302#1 103783038 1118486327#0 1118486327#1 1231722480 1118486325#0 1118486325#1 1118486325#2 44418748#0 -240679755 -142638060#1 -142638060#0 -1167550619#2 -687003614#0 -687003615 1270411373#1 1270581695#0 1270581695#1 -93173515#1 1478728470#0" />
    </vehicle>
    <vehicle id="changfeng35_0_38" type="veh_passenger" depart="1.357" departPos="random_free" arrivalPos="0.20" departLane="best" departSpeed="max">
        <route edges="-489493508#2 -489493508#1 -489493508#0 177811577#1 103783038 1073705819 -97676932#1 -97676932#0 -1478728470#4 1478728471#0 -1478728475 1478728471#3 1478728471#4 1478728471#5 -1478728470#0 93173515#1 1270411370 1270411355 687003614#0 687003614#1 1167550616#0 687003613#1 687003613#2 -687003613#2 -687003613#1 -687003613#0 1167550617#0 142638060#1 142638060#2 -109691095 1330117305 1329059766 1231937683 1118486328#0 1118486328#1 1073705819 1324597558 1092087672#0 1231722482 1118804255" />
    </vehicle>
    <vehicle id="changfeng35_0_39" type="veh_passenger" depart="1.393" departPos="random_free" arrivalPos="1.91" departLane="best" departSpeed="max">
        <route edges="-336885597 -1073705827#3 -1073705827#2 -1073705827#1 -1073705827#0 -372335514 1231722480 1118486325#0 1118486325#1 1118486325#2 44418748#0 -240679755 -142638060#1 -142638060#0 1167550616#0 1515352061 -225279017#0 687003614#1 1167550617#0 142638060#1 142638060#2 -109691095 1330117305 1329059766 1231937683 372335514 1073705827#0 1073705827#1 1073705827#2 1073705827#3 336885597 225372590#0 -225372592#3 -225372592#2 -225372592#1 -225372592#0 687003610#1 687003610#2 -1337777339 1073705821 1330117302#0 1330117302#1 103783038 1118486327#0 1118486327#1 1231722480 1118486325#0 1118486325#1 1118486325#2 44418748#0 -240679755 -142638060#1 -142638060#0 -1167550619#2 -687003614#0 -687003615 1270411373#1 1270581695#0 1270581695#1 1270411370" />
    </vehicle>
    <vehicle id="changfeng35_0_40" type="veh_passenger" depart="1.429" departPos="random_free" arrivalPos="9.34" departLane="best" departSpeed="max">
        <route edges="157810675#1 157810675#2 1073705829#0 1073705829#1 687003610#0 687003610#1 687003610#2 45167732 1073705821 1330117302#0 1330117302#1 103783038 1118486327#0 1118486327#1 1231722480 1118486325#0 1118486325#1 225277348 225277345#1 -177811579#2 -177811579#1 -177811579#0 -142638060#0 -1167550619#2 -687003614#0 -687003615 1270411373#1 1270581695#0 1270581695#1 -93173515#1 1478728470#0 1478728470#1 -1478728472 -1478728471#4 -1478728471#3 1478728471#3" />
    </vehicle>
    <vehicle id="changfeng35_0_41" type="veh_passenger" depart="1.464" departPos="random_free" arrivalPos="80.45" departLane="best" departSpeed="max">
        <route edges="157810675#0 157810675#1 157810675#2 103783038 1118486327#0 1118486327#1 1231722480 1118486325#0 1118486325#1 1118486325#2 44418748#0 -240679755 -142638060#1 -142638060#0 -1167550619#2 -687003614#0 -687003615 1270411373#1 1270581695#0 1270581695#1 1270411370 1270411355 687003614#0 687003614#1 1167550617#0 142638060#1 142638060#2 -109691095 1330117305 1329059766 1231937683 1118486328#0 1118486328#1 1073705819 1324597558 1027408000#0 1027408000#1 1073705831 1324597546 1118486327#0 1118486327#1 1231722480 1118486325#0 1118486325#1 1118486325#2 44418748#0 -240679755 -142638060#1 -142638060#0 -1167550619#2 225279017#0" />
    </vehicle>
    <vehicle id="changfeng35_0_42" type="veh_passenger" depart="1.500" departPos="random_free" arrivalPos="109.40" departLane="best" departSpeed="max">
        <route edges="-225372590#0 -336885597 687003612#0 687003612#1 687003612#2 1330117302#0 1330117302#1 103783038 1073705819 1324597546 109691114#0 109691114#1 -177811577#1 489493508#0 489493508#1 489493508#2 489493508#3 489493508#4 489493512 -489493511#0 -1073705827#2 -1073705827#1 -1073705827#0 -372335514 1231722480 1118486325#0 1118486325#1 1118486325#2 44418748#0 -240679755 -142638060#1 -142638060#0 -1167550619#2 -687003614#0 1330557846 1270411371#0 1270411371#1" />
    </vehicle>
    <vehicle id="changfeng35_0_43" type="veh_passenger" depart="1.536" departPos="random_free" arrivalPos="71.60" departLane="best" departSpeed="max">
        <route edges="1330117302#1 -177811577#1 -177811577#0 -1231937693 -1231937694 -1231937692 -1326094893 1337777328#0 1337777328#1 1073705822 687003612#0 687003612#1 687003612#2 1330117302#0 1330117302#1 103783038 1073705819 1324597558 1092087672#0 1231722482 1118804255 1073705831 1324597546 1118486327#0 1118486327#1 1231722480 1118486325#0 1118486325#1 1118486325#2 -1330117304#1 -1324597544 -240679753#1" />
    </vehicle>
    <vehicle id="changfeng35_0_44" type="veh_passenger" depart="1.571" departPos="random_free" arrivalPos="85.49" departLane="best" departSpeed="max">
        <route edges="-1478728470#1 -1478728470#0 93173515#1 1270411370 1270411355 687003614#0 687003614#1 1167550617#0 142638060#1 142638060#2 -109691095 1330117305 1329059766 1118486325#0 1118486325#1 1118486325#2 44418748#0 -240679755 -142638060#1 177811579#0 177811579#1 177811579#2 -225277345#1 -225277345#0" />
    </vehicle>
    <vehicle id="changfeng35_0_45" type="veh_passenger" depart="1.607" departPos="random_free" arrivalPos="2.42" departLane="best" departSpeed="max">
        <route edges="489493508#1 489493508#2 489493509 -1073705827#0 -372335514 1118486328#0 1118486328#1 1073705819 1324597558 1027408000#0 1027408000#1 1073705831 1324597546 109691114#0 109691114#1 1073705829#0 1073705829#1 687003610#0 687003610#1 687003610#2 -1337777339 1337777339" />
    </vehicle>
    <vehicle id="changfeng35_0_46" type="veh_passenger" depart="1.643" departPos="random_free" arrivalPos="14.35" departLane="best" departSpeed="max">
        <route edges="177811579#1 177811579#2 -177811579#2 -177811579#1 -177811579#0 -142638060#0 -1167550619#2 -687003614#0 -687003615 1270411373#1 1270581695#0 1270581695#1 -93173515#1 1478728470#0 1478728470#1 1478728470#2 -1478728470#2 1478728470#2 1478728470#3 1478728470#4 44418751 97676932#1 157810675#0 157810675#1 157810675#2 103783038 1073705819 -97676932#1 -97676932#0 -1478728470#4 -1478728470#3 -1478728470#2 -1478728472" />
    </vehicle>
    <vehicle id="changfeng35_0_47" type="veh_passenger" depart="1.679" departPos="random_free" arrivalPos="90.07" departLane="best" departSpeed="max">
        <route edges="-1270581690#2 -1073705832#2 -1073705832#0 97676931 -141180079#1 -141180079#0 58654498#1 1118804255 1073705831 1324597546 1118486327#0 1118486327#1 1231722480 1118486325#0 1326094892 1337777328#0 1337777328#1 1324597560 1329059764 1231937683 1118486328#0 1118486328#1 1073705819 -97676932#1 -97676932#0 -1478728470#4 1478728470#4 44418751 97676932#1 1324597546 1118486327#0 1118486327#1 372335514 1073705827#0 1073705827#1 1073705827#2" />
    </vehicle>
    <vehicle id="changfeng35_0_48" type="veh_passenger" depart="1.714" departPos="random_free" arrivalPos="23.88" departLane="best" departSpeed="max">
        <route edges="-687003613#3 -687003613#2 -687003613#1 -687003613#0 1167550617#0 142638060#1 142638060#2 -109691095 1330117305 1329059766 1231937683 1118486328#0 1118486328#1 109691114#0 109691114#1 1073705829#0 1073705829#1 -687003612#2 -489493511#1 -489493511#0 -1073705827#2 -1073705827#1 -1073705827#0 -372335514 1231722480 1118486325#0 1118486325#1 1118486325#2 44418748#0 -240679755 -142638060#1 177811579#0 177811579#1 177811579#2 -177811579#2 -177811579#1 -177811579#0 -142638060#0 -1167550619#2 -687003614#0 -687003615 1270411373#1 1270581695#0 1270581695#1 1270411370 1275296704#0 1275296704#1 -1275296704#1 -1275296704#0" />
    </vehicle>
    <vehicle id="changfeng35_0_49" type="veh_passenger" depart="1.750" departPos="random_free" arrivalPos="19.29" departLane="best" departSpeed="max">
        <route edges="1231722479#1 1231722480 1118486325#0 1118486325#1 1118486325#2 44418748#0 -240679755 -142638060#1 -142638060#0 -1167550619#2 -687003614#0 1330557846 1270411371#0 336728144 1270581695#1 1270411370 1270411355 687003614#0 687003614#1 1167550617#0 142638060#1 142638060#2 -109691095 1330117305 1329059766 1231937683 372335514 1073705827#0 1073705827#1 1073705827#2 1073705827#3 336885597 225372590#0 225372590#1 225372590#2 225372592#2 225372592#3 -225372590#0 -336885597 -1073705822 1324597560 1231937692 1231937694 1231937693" />
    </vehicle>
    <vehicle id="changfeng35_0_50" type="veh_passenger" depart="1.786" departPos="random_free" arrivalPos="8.97" departLane="best" departSpeed="max">