<?xml version='1.0' encoding='UTF-8'?>
<routes xmlns:xsi="http://www.w3.org/2001/XMLSchema-instance" xsi:noNamespaceSchemaLocation="http://sumo.dlr.de/xsd/routes_file.xsd">
    <vType id="veh_passenger" vClass="passenger" accel="2.6" decel="4.5" sigma="0.5" length="4.5" minGap="2.5" maxSpeed="15.555556" speedFactor="normc(1.00,0.10,0.70,1.30)" color="1,1,0" />
    <vehicle id="changfeng5_0_0" type="veh_passenger" depart="0.000" departPos="random_free" arrivalPos="137.13" departLane="best" departSpeed="max">
        <route edges="-1073705822 1073705822 687003612#0 687003612#1 687003612#2 687003610#0 225372592#0 225372592#1 -225372590#2 -225372590#1 -225372590#0 -336885597 -1073705827#3 -1073705827#2 -1073705827#1 -1073705827#0 -372335514 1231722480 1118486325#0 1118486325#1 225277348 225277345#1 -177811579#2 -177811579#1 -177811579#0 142638060#1 142638060#2 -109691095 1330117305 1326094892 1337777328#0 765716306" />
    </vehicle>
    <vehicle id="changfeng5_0_1" type="veh_passenger" depart="0.250" departPos="random_free" arrivalPos="16.51" departLane="best" departSpeed="max">
        <route edges="68992985#0 68992985#1 68992985#2 -1275296713 -240679755 -142638060#1 -142638060#0 -1167550619#2 -687003614#0 -687003615 1270411373#1 1270581695#0 1270581695#1 -93173515#1 1478728470#0 1478728470#1 1478728470#2 1478728470#3 1478728470#4 44418751 97676932#1 1324597546 109691114#0 109691114#1 1073705829#0 1073705829#1 687003610#0 687003610#1 687003610#2 -1337777339 -1163003870#1 -1163003870#0 -1231722483 -1231722484 1231722484 1231722483 1163003870#0 1163003870#1 1073705821 1330117302#0 1330117302#1 103783038 1073705819 -97676932#1 -97676932#0 -1478728470#4 1478728471#0 -1478728475 1478728471#3 1478728471#4 1478728472" />
    </vehicle>
    <vehicle id="changfeng5_0_2" type="veh_passenger" depart="0.500" departPos="random_free" arrivalPos="157.00" departLane="best" departSpeed="max">
        <route edges="-1270411370 1270411370 1270411355 687003614#0 687003614#1 1167550617#0 142638060#1 142638060#2 -109691095 1330117305 1329059766 1231937683 372335514 1073705827#0 1073705827#1 1073705827#2 1073705827#3 336885597 225372590#0 -225372590#0 -336885597 -1073705827#3 1073705827#3 -1073705822 1324597560 1329059764 1118486325#0 1118486325#1 1118486325#2 44418748#0 -240679755 -142638060#1 -142638060#0 1167550617#0" />
    </vehicle>
    <vehicle id="changfeng5_0_3" type="veh_passenger" depart="0.750" departPos="random_free" arrivalPos="21.19" departLane="best" departSpeed="max">
        <route edges="-1478728470#4 1478728470#4 44418751 97676932#1 1324597546 1118486327#0 1118486327#1 1231722480 1118486325#0 1326094892 1326094893 1329059764 1231937683 372335514 1073705827#0 1073705827#1 1073705827#2 1073705827#3 687003612#0 687003612#1 687003612#2 1330117302#0 1330117302#1 103783038 1073705819 -97676932#1 -97676932#0 -1478728470#4 1478728471#0 1478728471#1 1478728474" />
    </vehicle>
    <vehicle id="changfeng5_0_4" type="veh_passenger" depart="1.000" departPos="random_free" arrivalPos="6.38" departLane="best" departSpeed="max">
        <route edges="142638060#1 142638060#2 -109691095 1330117305 1326094892 1337777328#0 1337777328#1 958876930 1073705824#1 1073798764#0 1073798764#2 1073705826 1073798761 240679753#0 240679753#1 813902631#0 813902631#2 1073705822 336885597 225372590#0 -225372592#3 -225372592#2 -225372592#1 -225372592#0 687003610#1 687003610#2 -1337777339 1073705821 -687003612#2 -687003612#1 -687003612#0 -1073705827#3 -1073705827#2 -1073705827#1 -489493509" />
    </vehicle>
    <vehicle id="changfeng5_0_5" type="veh_passenger" depart="1.250" departPos="random_free" arrivalPos="104.49" departLane="best" departSpeed="max">
        <route edges="687003610#1 687003610#2 -1337777339 1073705821 -687003612#2 -687003612#1 -687003612#0 -1073705822 958876930 -1073705824#0 -336885594 336885594 1073705824#0 -1073705824#0 225378733 1324597560 1329059764 1231937683 1118486328#0 1118486328#1 1073705819 1324597558 1092087672#0 1231722482 1118804255 1073705831 1324597558 1092087672#0" />
    </vehicle>
    <vehicle id="changfeng5_0_6" type="veh_passenger" depart="1.500" departPos="random_free" arrivalPos="23.76" departLane="best" departSpeed="max">
        <route edges="1073705828#1 1337777328#0 1337777328#1 1073705822 687003612#0 687003612#1 687003612#2 1330117302#0 1330117302#1 103783038 1118486327#0 1118486327#1 1231722480 1118486325#0 1118486325#1 1118486325#2 44418748#0 -240679755 -142638060#1 -142638060#0 1167550616#0 687003613#1 687003613#2 -687003613#2 -687003613#1 -687003613#0 1167550617#0 142638060#1 142638060#2 -109691095 1330117305 1329059766 1231937683 1118486328#0 1118486328#1 1073705819 1324597558 1092087672#0 1231722482 -58654498#1 141180079#0 141180079#1 -97676931 1073705832#0 1073705832#1 -62055779#2 -62055779#0 62055779#0" />
    </vehicle>
    <vehicle id="changfeng5_0_7" type="veh_passenger" depart="1.750" departPos="random_free" arrivalPos="48.46" departLane="best" departSpeed="max">
        <route edges="1337777340 1073705821 1330117302#0 1330117302#1 -177811577#1 -177811577#0 1073705827#0 -1073705827#0 -1231937693 -1231937694 -1231937692 -1326094893 -1073705828#1 1073705828#1 1326094893 1329059764 1231937683 1118486328#0 1118486328#1 1073705819 1324597558 1092087672#0 1231722482 -58654498#1 141180079#0 141180079#1" />
    </vehicle>
    <vehicle id="changfeng5_0_8" type="veh_passenger" depart="2.000" departPos="random_free" arrivalPos="4.08" departLane="best" departSpeed="max">
        <route edges="1027408000#1 1073705831 1324597546 109691114#0 109691114#1 1073705829#0 1073705829#1 -687003612#2 -489493511#1 -489493512 -489493508#4 -489493508#3 -489493508#2 -489493508#1 -489493508#0 177811577#1 103783038 1073705819 -97676932#1 -97676932#0 -1478728470#4 1478728471#0 1478728471#1 -1478728471#1 -1478728471#0 -1478728470#3 -1478728470#2 -1478728470#1 -1478728470#0 93173515#1 1270411370 1270411355 -687003615" />
    </vehicle>
    <vehicle id="changfeng5_0_9" type="veh_passenger" depart="2.250" departPos="random_free" arrivalPos="30.21" departLane="best" departSpeed="max">
        <route edges="1118804255 1073705831 1324597546 1118486327#0 1118486327#1 1231722480 1118486325#0 1118486325#1 225277348 225277345#1 -225277345#1 -225277351#0 1118486325#2 1330117305 1329059766 1231937683 372335514 1073705827#0 1073705827#1 1073705827#2 489493511#0 489493511#1 -687003612#1 -687003612#0 -1073705822 134667923" />
    </vehicle>
    <vehicle id="changfeng5_0_10" type="veh_passenger" depart="2.500" departPos="random_free" arrivalPos="3.64" departLane="best" departSpeed="max">
        <route edges="225372590#2 225372592#2 225372592#3 -225372592#3 -225372592#2 -225372592#1 -225372592#0 687003610#1 687003610#2 -1337777339 1073705821 1330117302#0 1330117302#1 103783038 1073705819 1324597558 1092087672#0 1231722482 -58654498#1 141180079#0 141180079#1 -97676931 1073705832#0 -1073705832#0 97676931 -141180079#1 -141180079#0 58654498#1 1118804255 1073705831 1324597546 1118486327#0 1118486327#1 1231722480 1118486325#0 1118486325#1 1118486325#2 44418748#0 -240679755 -142638060#1 -142638060#0 -1167550619#2 -687003614#0 -687003615 1270411373#1 1270581695#0 1270581695#1 1270411370" />
    </vehicle>
    <vehicle id="changfeng5_0_11" type="veh_passenger" depart="2.750" departPos="random_free" arrivalPos="169.30" departLane="best" departSpeed="max">
        <route edges="1329059764 1231937683 1118486328#0 1118486328#1 109691114#0 109691114#1 1073705829#0 1073705829#1 687003610#0 687003610#1 687003610#2 -1337777339 -1163003870#1 -1163003870#0 -1231722483 -1231722484 1231722484 1231722483 1163003870#0 1163003870#1 1073705821 -687003612#2 -687003612#1 -687003612#0 336885597 225372590#0 -225372590#0 -336885597 -1073705822 1324597560 -1326094893 1337777328#0 765716306" />
    </vehicle>
    <vehicle id="changfeng5_0_12" type="veh_passenger" depart="3.000" departPos="random_free" arrivalPos="133.28" departLane="best" departSpeed="max">
        <route edges="1073705830 1118486327#0 1118486327#1 1231722480 1118486325#0 1118486325#1 1118486325#2 44418748#0 -240679755 -142638060#1 -142638060#0 -1167550619#2 -687003614#0 -687003615 1270411373#1 1270581695#0 1270581695#1 1270411370 1270411355 687003614#0 687003614#1 1167550617#0 142638060#1 142638060#2 -109691095 1330117305 1329059766 1231937683 1118486328#0 1118486328#1 1073705819 1324597558 1092087672#0 1231722482 -58654498#1 141180079#0 141180079#1 -141180079#1 -141180079#0 58654498#1 1118804255 1073705831 1324597546 1118486327#0 1118486327#1 1231722480 1118486325#0 1326094892 1337777328#0 1337777328#1 -813902631#2 -813902631#0 1324597544" />
    </vehicle>
    <vehicle id="changfeng5_0_13" type="veh_passenger" depart="3.250" departPos="random_free" arrivalPos="26.43" departLane="best" departSpeed="max">
        <route edges="-157810675#1 -157810675#0 1324597546 109691114#0 109691114#1 1073705829#0 1073705829#1 -687003612#2 -687003612#1 -687003612#0 -1073705827#3 489493511#0 489493511#1 687003612#2 1330117302#0 1330117302#1 103783038 1073705819 1324597558 1092087672#0 1231722482 -58654498#1 141180079#0 141180079#1 -141180079#1 -141180079#0" />
    </vehicle>
    <vehicle id="changfeng5_0_14" type="veh_passenger" depart="3.500" departPos="random_free" arrivalPos="207.51" departLane="best" departSpeed="max">
        <route edges="-225372591 -687003612#0 -1073705822 1324597560 1329059764 1118486325#0 1118486325#1 1118486325#2 44418748#0 -240679755 -142638060#1 -142638060#0 -1167550619#2 687003614#1 1167550617#0 142638060#1 142638060#2 -109691095 -1330117304#1 -1324597544 813902631#0 813902631#2 1324597560 1329059764 1118486325#0 1118486325#1 1118486325#2 1330117300" />
    </vehicle>
    <vehicle id="changfeng5_0_15" type="veh_passenger" depart="3.750" departPos="random_free" arrivalPos="3.01" departLane="best" departSpeed="max">
        <route edges="-1073705832#0 97676931 -141180079#1 -141180079#0 58654498#1 1118804255 1073705831 1324597546 109691114#0 109691114#1 1073705829#0 1073705829#1 687003610#0 687003610#1 687003610#2 -1337777339 1337777339 -1337777339 1073705821 687003610#0 225372592#0 225372592#1 -225372592#1 -225372592#0 687003610#1 687003610#2 -1337777339 1073705821 -687003612#2 -687003612#1 -687003612#0 -1073705822 -813902631#2 -813902631#0 -240679753#1 -240679753#0 -1073798761 -1073705826 -1073798764#2" />
    </vehicle>
    <vehicle id="changfeng5_0_16" type="veh_passenger" depart="4.000" departPos="random_free" arrivalPos="51.74" departLane="best" departSpeed="max">
        <route edges="1270581695#0 1270581695#1 1270411370 1270411355 687003614#0 687003614#1 1167550617#0 142638060#1 142638060#2 -109691095 1330117300 1238502000 1273359364 1118486326#0 1330117305 1326094892 1326094893 1231937692 1231937694 1231937693 -372335514 1118486328#0 1118486328#1 1073705819 1324597558 1092087672#0 1231722482 -58654498#1 -58654498#0" />
    </vehicle>
    <vehicle id="changfeng5_0_17" type="veh_passenger" depart="4.250" departPos="random_free" arrivalPos="37.69" departLane="best" departSpeed="max">
        <route edges="-177811579#1 -177811579#0 142638060#1 142638060#2 -109691095 1330117305 1329059766 1231937683 372335514 1073705827#0 1073705827#1 1073705827#2 1073705827#3 687003612#0 687003612#1 687003612#2 1330117302#0 1330117302#1 103783038 1073705819 157810675#0 157810675#1 157810675#2 103783038 1118486327#0 1118486327#1 1231722480 1118486325#0 1118486325#1 1118486325#2 44418748#0 -240679755 -142638060#1 -142638060#0 1167550616#0 687003613#1 687003613#2 -687003613#2" />
    </vehicle>
    <vehicle id="changfeng5_0_18" type="veh_passenger" depart="4.500" departPos="random_free" arrivalPos="52.31" departLane="best" departSpeed="max">
        <route edges="45167732 1073705821 1330117302#0 1330117302#1 103783038 1073705819 -97676932#1 -97676932#0 -1478728470#4 -1478728470#3 -1478728470#2 -1478728470#1 1478728470#1 1478728470#2 1478728470#3 1478728470#4 44418751 97676932#1 1324597546 109691114#0 109691114#1 -177811577#1 489493508#0 489493508#1 489493508#2 -489493508#2 -489493508#1 -489493508#0 -177811577#0 1073705827#0 1073705827#1 1073705827#2" />
    </vehicle>
    <vehicle id="changfeng5_0_19" type="veh_passenger" depart="4.750" departPos="random_free" arrivalPos="162.75" departLane="best" departSpeed="max">
        <route edges="1324597544 1073705828#0 1073705828#1 1326094893 1231937692 1231937694 1231937693 1073705827#0 1073705827#1 1073705827#2 1073705827#3 -1073705822 -813902631#2 -813902631#0 -240679753#1 -240679753#0 -1073798761 -1073705826 -1073798764#2 -1073798764#0 -1073705824#1 -1073705824#0 225378733 1324597560 1329059764 1231937683 1118486328#0 1118486328#1 1073705819 1324597558 1092087672#0 1231722482 -58654498#1 141180079#0 141180079#1 -97676931 1073705832#0 1073705832#1 -1073705832#2" />
    </vehicle>
</routes>