<?xml version='1.0' encoding='UTF-8'?>
<routes xmlns:xsi="http://www.w3.org/2001/XMLSchema-instance" xsi:noNamespaceSchemaLocation="http://sumo.dlr.de/xsd/routes_file.xsd">
    <vType id="veh_passenger" vClass="passenger" accel="2.6" decel="4.5" sigma="0.5" length="4.5" minGap="2.5" maxSpeed="15.555556" speedFactor="normc(1.00,0.10,0.70,1.30)" color="1,1,0" />
    <vehicle id="changfeng20_4_0" type="veh_passenger" depart="0.000" departPos="random_free" arrivalPos="70.53" departLane="best" departSpeed="max">
        <route edges="-1163003870#0 -1231722483 -1231722484 1231722484 1231722483 1163003870#0 1163003870#1 1073705821 1330117302#0 1330117302#1 103783038 1073705819 -97676932#1 -97676932#0 -1478728470#4 1478728471#0 -1478728475 1478728471#3 1478728473 1478728470#3 1478728470#4 44418751 97676932#1 1324597558 1092087672#0 1231722482 -58654498#1 141180079#0 141180079#1 -97676931 1073705832#0 -1073705832#0 97676931 -141180079#1 -141180079#0 58654498#1 1118804255 1073705831 1324597546 1118486327#0 1118486327#1 1231722480 1118486325#0 1326094892 1337777328#0 1337777328#1 958876930 1073705824#1 1073798764#0 1073798764#2 1073705826 1073798761 240679753#0 240679753#1" />
    </vehicle>
    <vehicle id="changfeng20_4_1" type="veh_passenger" depart="0.062" departPos="random_free" arrivalPos="8.19" departLane="best" departSpeed="max">
        <route edges="-1270581690#2 -1073705832#2 -1073705832#0 97676931 -141180079#1 -141180079#0 58654498#1 1118804255 1073705831 1324597546 1118486327#0 1118486327#1 1231722480 1118486325#0 1118486325#1 1118486325#2 1330117300 1238502000 1273359364 1118486326#0 1330117305 1329059766 1231937683 372335514 1073705827#0 1073705827#1 1073705827#2 -1073705827#2 -1073705827#1 -1073705827#0 -372335514 1231722480 1118486325#0 1118486325#1 1118486325#2 44418748#0 -240679755 -142638060#1 -142638060#0 -1167550619#2" />
    </vehicle>
    <vehicle id="changfeng20_4_2" type="veh_passenger" depart="0.125" departPos="random_free" arrivalPos="45.05" departLane="best" departSpeed="max">
        <route edges="-131415374 103783036 1073705831 -97676932#1 -97676932#0 -1478728470#4 1478728471#0 1478728471#1 1478728471#2 1478728475 -1478728471#0 1478728470#4 44418751 97676932#1 1324597558 1092087672#0 1231722482 1118804255 1073705831 1324597546 109691114#0 109691114#1 1073705829#0 1073705829#1 -687003612#2 -687003612#1 -687003612#0 -1073705827#3" />
    </vehicle>
    <vehicle id="changfeng20_4_3" type="veh_passenger" depart="0.188" departPos="random_free" arrivalPos="136.81" departLane="best" departSpeed="max">
        <route edges="-1073705824#0 225378733 1324597560 1329059764 1118486325#0 1118486325#1 1118486325#2 44418748#0 -240679755 -142638060#1 -142638060#0 -1167550619#2 225279017#0 -1515352061 -687003613#0 1167550617#0 142638060#1 142638060#2 -109691095 1330117305 1329059766 1231937683 372335514 1073705827#0 1073705827#1 1073705827#2 1073705827#3 336885597 225372590#0 -225372592#3 -225372592#2 -225372592#1 -225372592#0 687003610#1 687003610#2 -1337777339 1073705821 1330117302#0 1330117302#1 103783038 1073705819 1324597546" />
    </vehicle>
    <vehicle id="changfeng20_4_4" type="veh_passenger" depart="0.250" departPos="random_free" arrivalPos="24.99" departLane="best" departSpeed="max">
        <route edges="1073705825 813902631#0 813902631#2 958876930 1073705824#1 1073798764#0 1073798764#2 1073705826 1073798761 240679753#0 240679753#1 813902631#0 813902631#2 1073705822 687003612#0 687003612#1 687003612#2 687003610#0 687003610#1 687003610#2 -1337777339 -1163003870#1 -1163003870#0 -1231722483 -1231722484 1231722484 1231722483 1163003870#0 1163003870#1 1073705821 1330117302#0 1330117302#1 103783038 1118486327#0 1118486327#1 -1231722479#1" />
    </vehicle>
    <vehicle id="changfeng20_4_5" type="veh_passenger" depart="0.312" departPos="random_free" arrivalPos="36.01" departLane="best" departSpeed="max">
        <route edges="-489493509 489493508#3 489493508#4 489493508#5 1073705827#2 1073705827#3 -1073705822 -813902631#2 -813902631#0 1324597544 1330117304#0 44418748#0 -240679755 -142638060#1 -142638060#0 -1167550619#2 -687003614#0 -687003615 1270411373#1 1270581695#0 1270581695#1 1270411370 1270411355 687003614#0 687003614#1 1167550617#0 142638060#1 142638060#2 -109691095 1330117305 1329059766 1231937683 1118486328#0 1118486328#1 109691114#0 109691114#1 1073705829#0 1073705829#1 687003610#0 687003610#1 687003610#2 -1337777339 -1163003870#1" />
    </vehicle>
    <vehicle id="changfeng20_4_6" type="veh_passenger" depart="0.375" departPos="random_free" arrivalPos="2.15" departLane="best" departSpeed="max">
        <route edges="-97676931 1073705832#0 -1073705832#0 97676931 -141180079#1 -141180079#0 58654498#1 1118804255 1073705831 1324597546 109691114#0 109691114#1 1073705829#0 1073705829#1 687003610#0 687003610#1 687003610#2 -1337777339 1073705821 1330117302#0 1330117302#1 103783038 1118486327#0 1118486327#1 1231722480 1118486325#0 1118486325#1 1118486325#2 44418748#0 -240679755 -142638060#1 -142638060#0 -1167550619#2 225279017#0 225279017#1 1515352060 -687003613#2 -687003613#1 -687003613#0 -1167550619#2 -687003614#0 1330557846 1270411371#0 1270411371#1 -1270411370" />
    </vehicle>
    <vehicle id="changfeng20_4_7" type="veh_passenger" depart="0.438" departPos="random_free" arrivalPos="127.91" departLane="best" departSpeed="max">
        <route edges="-1478728474 -1478728471#1 -1478728471#0 1478728470#4 44418751 97676932#1 1324597558 1092087672#0 1231722482 -58654498#1 141180079#0 141180079#1 -141180079#1 -141180079#0 58654498#1 1118804255 1073705831 1324597546 1118486327#0 1118486327#1 1231722480 1118486325#0 1118486325#1 1118486325#2 44418748#0 -240679755 -142638060#1 177811579#0 177811579#1 177811579#2 -177811579#2 -177811579#1 -177811579#0 -142638060#0 1167550616#0 1515352061" />
    </vehicle>
    <vehicle id="changfeng20_4_8" type="veh_passenger" depart="0.500" departPos="random_free" arrivalPos="37.12" departLane="best" departSpeed="max">
        <route edges="-1163003870#0 -1231722483 -1231722484 1231722484 1231722483 1163003870#0 1163003870#1 1073705821 687003610#0 687003610#1 687003610#2 -1337777339 1073705821 -687003612#2 -687003612#1 -687003612#0 -1073705822 -813902631#2 -813902631#0 -240679753#1 -240679753#0 -1073798761 -1073705826 -1073798764#2 -1073798764#0 -1073705824#1 -1073705824#0 225378733 1324597560 1329059764 1118486325#0 1118486325#1 225277348 -225277351#0" />
    </vehicle>
    <vehicle id="changfeng20_4_9" type="veh_passenger" depart="0.562" departPos="random_free" arrivalPos="62.76" departLane="best" departSpeed="max">
        <route edges="177811579#0 177811579#1 177811579#2 -225277345#1 -225277351#0 1118486325#2 1330117305 1329059766 1231937683 372335514 1073705827#0 1073705827#1 1073705827#2 1073705827#3 -1073705827#3 -1073705827#2 -1073705827#1 -1073705827#0 -372335514 1118486328#0 1118486328#1 1073705819 -97676932#1 -97676932#0 -1478728470#4 1478728471#0 -1478728475 1478728475 -1478728471#0 1478728470#4 44418751 97676932#1 157810675#0" />
    </vehicle>
    <vehicle id="changfeng20_4_10" type="veh_passenger" depart="0.625" departPos="random_free" arrivalPos="16.25" departLane="best" departSpeed="max">
        <route edges="44418751 97676932#1 1324597546 1118486327#0 1118486327#1 1231722480 1118486325#0 1118486325#1 1118486325#2 44418748#0 -240679755 -142638060#1 -142638060#0 -1167550619#2 -687003614#0 -687003615 1270411373#1 1270581695#0 1270581695#1 1270411370 1275296704#0 1275296704#1 -1275296704#1 -1275296704#0 1270411355 687003614#0 687003614#1 1167550617#0 142638060#1 142638060#2 -109691095 1330117305 1329059766 1231937683 1118486328#0 1118486328#1 1073705819 1324597558 1092087672#0 1231722482 -58654498#1 141180079#0 141180079#1 141180079#2 -141180079#2" />
    </vehicle>
    <vehicle id="changfeng20_4_11" type="veh_passenger" depart="0.688" departPos="random_free" arrivalPos="5.07" departLane="best" departSpeed="max">
        <route edges="-1478728471#5 1478728472 1478728470#2 1478728470#3 1478728470#4 44418751 97676932#1 1324597546 1118486327#0 1118486327#1 -1231722479#1 -1231722479#0 1231722479#0 1231722479#1 1231722480 1118486325#0 1118486325#1 1118486325#2 -1330117304#1 -1324597544 -240679753#1 -240679753#0 -1073798761 -1073705826 -1073798764#2 -1073798764#0 -1073705824#1 -1073705824#0 225378733 1324597560 1329059764 1118486325#0 1118486325#1 1118486325#2 44418748#0 -240679755 -142638060#1 -142638060#0 -1167550619#2 -687003614#0 -687003615 1270411373#1 1270581695#0 1270581695#1" />
    </vehicle>
    <vehicle id="changfeng20_4_12" type="veh_passenger" depart="0.750" departPos="random_free" arrivalPos="60.40" departLane="best" departSpeed="max">
        <route edges="-1275296704#1 -1275296704#0 1270411355 687003614#0 687003614#1 1167550617#0 177811579#0 177811579#1 177811579#2 -225277345#1 -225277351#0 1118486325#2 1330117305 1329059766 1231937683 1118486328#0 1118486328#1 109691114#0 109691114#1 1073705829#0 1073705829#1 -687003612#2 -687003612#1 -687003612#0 336885597 225372590#0" />
    </vehicle>
    <vehicle id="changfeng20_4_13" type="veh_passenger" depart="0.812" departPos="random_free" arrivalPos="357.90" departLane="best" departSpeed="max">
        <route edges="1478728470#2 1478728470#3 1478728470#4 44418751 97676932#1 1324597546 1118486327#0 1118486327#1 372335514 1073705827#0 1073705827#1 1073705827#2 1073705827#3 -1073705822 1324597560 1329059764 1118486325#0 1118486325#1 1118486325#2 44418748#0 -240679755 -142638060#1 142638060#1 142638060#2 -109691095 1330117305 1326094892 1337777328#0 1337777328#1 1073705822" />
    </vehicle>
    <vehicle id="changfeng20_4_14" type="veh_passenger" depart="0.875" departPos="random_free" arrivalPos="18.65" departLane="best" departSpeed="max">
        <route edges="1270411355 687003614#0 687003614#1 1167550617#0 142638060#1 142638060#2 -109691095 1330117305 1329059766 1231937683 372335514 1073705827#0 1073705827#1 1073705827#2 1073705827#3 687003612#0 225372591 -225372590#1 -225372590#0 -336885597 -1073705827#3 -1073705827#2 -1073705827#1 -1073705827#0 -372335514 1231722480 1118486325#0 1118486325#1 1118486325#2 44418748#0 -240679755 -142638060#1 -142638060#0 -1167550619#2 -687003614#0 -687003615 1270411373#1 1270581695#0 1270581695#1 1270411370 1275296704#0 1275296704#1 -1275296704#1 -1275296704#0 1270411355 687003614#0 687003614#1 1167550617#0 142638060#1 142638060#2 -109691095 1330117305 1326094892 1337777328#0 765716306" />
    </vehicle>
    <vehicle id="changfeng20_4_15" type="veh_passenger" depart="0.938" departPos="random_free" arrivalPos="8.69" departLane="best" departSpeed="max">
        <route edges="109691114#1 -177811577#1 -177811577#0 1073705827#0 1073705827#1 -489493508#5 489493512 -489493511#0 1073705827#3 -1073705822 958876930 -1073705824#0 -336885594 336885594 1073705824#0" />
    </vehicle>
    <vehicle id="changfeng20_4_16" type="veh_passenger" depart="1.000" departPos="random_free" arrivalPos="21.62" departLane="best" departSpeed="max">
        <route edges="-1073705827#3 -1073705827#2 -1073705827#1 -1073705827#0 -1231937693 -1231937694 -1231937692 1329059764 1231937683 1118486328#0 1118486328#1 1073705819 1324597558 1092087672#0 1231722482 -58654498#1 141180079#0 141180079#1 141180079#2 -141180079#2 -141180079#1 -141180079#0 58654498#1 1118804255 1073705831 1324597546 1118486327#0 1118486327#1 1231722480 1118486325#0 1118486325#1 1118486325#2 -1330117304#1 -1324597544 -240679753#1" />
    </vehicle>
    <vehicle id="changfeng20_4_17" type="veh_passenger" depart="1.062" departPos="random_free" arrivalPos="1.64" departLane="best" departSpeed="max">
        <route edges="489493508#5 -1073705827#1 -1073705827#0 -372335514 1118486328#0 1118486328#1 1073705819 -97676932#1 -97676932#0 -1478728470#4 1478728471#0 -1478728475 1478728475 -1478728471#0 1478728470#4 44418751 97676932#1 1324597546 109691114#0 109691114#1 1073705829#0 1073705829#1 -687003612#2 -687003612#1 687003612#1 687003612#2 1330117302#0 1330117302#1 103783038 1118486327#0 1118486327#1 1231722480 1118486325#0 1118486325#1 1118486325#2 1330117300 1238502000 1238501991" />
    </vehicle>
    <vehicle id="changfeng20_4_18" type="veh_passenger" depart="1.125" departPos="random_free" arrivalPos="280.47" departLane="best" departSpeed="max">
        <route edges="97676932#1 1324597546 1118486327#0 1118486327#1 1231722480 1118486325#0 1118486325#1 1118486325#2 -1330117304#1 -1324597544 -240679753#1 -240679753#0 -1073798761 -1073705826 -1073798764#2 -1073798764#0 -1073705824#1 -1073705824#0 225378733 1324597560 1329059764 1231937683 1118486328#0 1118486328#1 1073705819 1324597558 1092087672#0 1231722482 -58654498#1 141180079#0 141180079#1 141180079#2 -141180079#2 -141180079#1 -141180079#0 58654498#1 1118804255 1073705831 1324597546 109691114#0 109691114#1 1073705829#0 1073705829#1 -687003612#2 -687003612#1 -687003612#0 -1073705822 1324597560" />
    </vehicle>
    <vehicle id="changfeng20_4_19" type="veh_passenger" depart="1.188" departPos="random_free" arrivalPos="219.62" departLane="best" departSpeed="max">
        <route edges="225372592#0 225372592#1 -225372590#2 -225372590#1 -225372590#0 -336885597 -1073705827#3 -1073705827#2 -1073705827#1 -1073705827#0 -1231937693 -1231937694 -1231937692 1231937692 1231937694 1231937693 177811577#0 177811577#1 103783038 1073705819 1324597558 1027408000#0 1027408000#1 1073705831" />
    </vehicle>
    <vehicle id="changfeng20_4_20" type="veh_passenger" depart="1.250" departPos="random_free" arrivalPos="73.44" departLane="best" departSpeed="max">
        <route edges="-1073705832#0 97676931 -141180079#1 -141180079#0 58654498#1 1118804255 1073705831 -97676932#1 -97676932#0 -1478728470#4 1478728471#0 -1478728471#0 1478728470#4 44418751 97676932#1 1324597546 1118486327#0 1118486327#1 1231722480 1118486325#0 1326094892 1326094893 1231937692" />
    </vehicle>
    <vehicle id="changfeng20_4_21" type="veh_passenger" depart="1.312" departPos="random_free" arrivalPos="52.79" departLane="best" departSpeed="max">
        <route edges="-1478728473 1478728471#4 1478728471#5 -1478728470#0 93173515#1 1270411370 1270411355 687003614#0 687003614#1 1167550617#0 177811579#0 177811579#1 177811579#2 -225277345#1 -225277351#0 1118486325#2 1330117305 1326094892 1337777328#0 1337777328#1 -813902631#2 -813902631#0 1324597544 1073705828#0 -1073705828#0" />
    </vehicle>
    <vehicle id="changfeng20_4_22" type="veh_passenger" depart="1.375" departPos="random_free" arrivalPos="11.80" departLane="best" departSpeed="max">
        <route edges="1073705827#0 1073705827#1 1073705827#2 1073705827#3 -1073705822 -813902631#2 -813902631#0 -240679753#1 -240679753#0 -1073798761 -1073705826 -1073798764#2 -1073798764#0 -1073705824#1 -1073705824#0 225378733 1073705822 -1073705827#3 -1073705827#2 -1073705827#1 -489493509 -489493508#2 -489493508#1 -489493508#0 177811577#1 103783038 1073705819 -97676932#1 -97676932#0 -1478728470#4 1478728471#0 -1478728475 1478728471#3 1478728471#4" />
    </vehicle>
    <vehicle id="changfeng20_4_23" type="veh_passenger" depart="1.438" departPos="random_free" arrivalPos="141.09" departLane="best" departSpeed="max">
        <route edges="1275296705 1167550617#0 142638060#1 142638060#2 -109691095 1330117305 1329059766 1231937683 1118486328#0 1118486328#1 1073705819 1324597546 1073705819 -97676932#1 -97676932#0 -1478728470#4 1478728470#4 44418751 97676932#1" />
    </vehicle>
    <vehicle id="changfeng20_4_24" type="veh_passenger" depart="1.500" departPos="random_free" arrivalPos="4.75" departLane="best" departSpeed="max">
        <route edges="142638060#1 142638060#2 -109691095 1330117305 1329059766 1231937683 1118486328#0 1118486328#1 1073705819 1324597558 1092087672#0 1231722482 -58654498#1 141180079#0 141180079#1 -97676931 1073705832#0 1073705832#1 -1073705832#2 -1073705832#0 97676931 -141180079#1 -141180079#0 58654498#1 1118804255 1073705831 1324597546 109691114#0 109691114#1 1073705829#0 1073705829#1 -687003612#2 -687003612#1 -687003612#0 336885597 225372590#0 -225372590#0 -336885597 -1073705822 958876930 -1073705824#0 -336885594 336885594 1073705824#0" />
    </vehicle>
    <vehicle id="changfeng20_4_25" type="veh_passenger" depart="1.562" departPos="random_free" arrivalPos="40.09" departLane="best" departSpeed="max">
        <route edges="-1337777339 -1163003870#1 -1163003870#0 -1231722483 -1231722484 1231722484 1231722483 1163003870#0 1163003870#1 1073705821 -687003612#2 -489493511#1 -489493512 -489493508#4 -489493508#3 -489493508#2 -489493508#1 -489493508#0 177811577#1 103783038 1073705819 1324597558 1092087672#0 1231722482 -58654498#1 141180079#0 141180079#1 -97676931 1073705832#0" />
    </vehicle>
    <vehicle id="changfeng20_4_26" type="veh_passenger" depart="1.625" departPos="random_free" arrivalPos="54.39" departLane="best" departSpeed="max">
        <route edges="1515352061 -225279017#0 687003614#1 1167550617#0 142638060#1 142638060#2 -109691095 1330117305 1326094892 1337777328#0 1337777328#1 958876930 1073705824#1 1073798764#0 1073798764#2 1073705826 1073798761 240679753#0 240679753#1 813902631#0 813902631#2 958876930 1073705824#1 1073798764#0 1073798764#2 1073705826 1073798761 240679753#0 240679753#1 1324597544 1330117304#0 44418748#0 -240679755 -142638060#1 142638060#1 142638060#2" />
    </vehicle>
    <vehicle id="changfeng20_4_27" type="veh_passenger" depart="1.688" departPos="random_free" arrivalPos="111.21" departLane="best" departSpeed="max">
        <route edges="-240679755 -142638060#1 -142638060#0 -1167550619#2 -687003614#0 -687003615 1270411373#1 1270581695#0 1270581695#1 -93173515#1 1478728470#0 1478728470#1 -1478728472 -1478728471#4 -1478728471#3 -1478728471#2 -1478728471#1 -1478728471#0 1478728470#4 44418751 97676932#1 1324597546 1118486327#0 1118486327#1 1231722480 1118486325#0 1118486325#1 1118486325#2 -1330117304#1 -1324597544 -240679753#1 -240679753#0 -1073798761 -1073705826 -1073798764#2 -1073798764#0 -1073705824#1 -1073705824#0 225378733 1324597560 1329059764 1118486325#0 1118486325#1 1118486325#2 44418748#0 -240679755 -142638060#1 -142638060#0 -1167550619#2 -687003614#0 -687003615 1270411373#1 1270581695#0 1270581695#1" />
    </vehicle>
    <vehicle id="changfeng20_4_28" type="veh_passenger" depart="1.750" departPos="random_free" arrivalPos="13.26" departLane="best" departSpeed="max">
        <route edges="1330117305 1329059766 1118486325#0 1118486325#1 1118486325#2 44418748#0 -240679755 -142638060#1 142638060#1 142638060#2 -109691095 1330117305 1329059766 1231937683 1118486328#0 1118486328#1 109691114#0 109691114#1 1073705829#0 1073705829#1 687003610#0 225372592#0 225372592#1 225372592#2 225372592#3 225372590#1 225372590#2 -225372592#1 -225372592#0" />
    </vehicle>
    <vehicle id="changfeng20_4_29" type="veh_passenger" depart="1.812" departPos="random_free" arrivalPos="11.65" departLane="best" departSpeed="max">
        <route edges="-1231937694 -1231937692 1329059764 1231937683 1118486328#0 1118486328#1 1073705819 1324597558 1092087672#0 1231722482 -58654498#1 141180079#0 141180079#1 -97676931 1073705832#0 -1073705832#0 97676931 -141180079#1 -141180079#0 58654498#1 1118804255 1073705831 1324597546 109691114#0 109691114#1 -177811577#1 489493508#0 489493508#1 489493508#2 489493509 -1073705827#0 -372335514 1118486328#0 1118486328#1 1073705819 1324597558" />
    </vehicle>
    <vehicle id="changfeng20_4_30" type="veh_passenger" depart="1.875" departPos="random_free" arrivalPos="42.79" departLane="best" departSpeed="max">
        <route edges="1324597558 1027408000#0 1027408000#1 1073705831 1324597546 1118486327#0 1118486327#1 1231722480 1118486325#0 1118486325#1 1118486325#2 44418748#0 -240679755 -142638060#1 177811579#0 177811579#1 177811579#2 -225277345#1 -225277351#0 1118486325#2 1330117305 1329059766 1231937683 372335514 1073705827#0 1073705827#1 1073705827#2 1073705827#3 336885597 225372590#0 -225372590#0 -336885597 -1073705827#3 -1073705827#2" />
    </vehicle>
    <vehicle id="changfeng20_4_31" type="veh_passenger" depart="1.938" departPos="random_free" arrivalPos="193.97" departLane="best" departSpeed="max">
        <route edges="-336885597 -1073705822 1324597560 -1326094893 1337777328#0 765716306 -1073705828#0 1330117304#0 1330117300 1238502000 1273359364 1118486326#0 1330117305 1326094892 1326094893 1231937692 1231937694 1231937693 -372335514" />
    </vehicle>
    <vehicle id="changfeng20_4_32" type="veh_passenger" depart="2.000" departPos="random_free" arrivalPos="41.25" departLane="best" departSpeed="max">
        <route edges="1231722479#1 1231722480 1118486325#0 1326094892 1337777328#0 1337777328#1 1073705822 687003612#0 687003612#1 687003612#2 1330117302#0 1330117302#1 103783038 1073705819 1324597558 1092087672#0 1231722482 -58654498#1 141180079#0 141180079#1 -141180079#1 -141180079#0 58654498#1 1118804255 1073705831 1324597546 1118486327#0 1118486327#1 1231722480 1118486325#0 1118486325#1 1118486325#2 44418748#0 -240679755 -142638060#1 -142638060#0 -1167550619#2 -687003614#0 -687003615 1270411373#1" />
    </vehicle>
    <vehicle id="changfeng20_4_33" type="veh_passenger" depart="2.062" departPos="random_free" arrivalPos="53.46" departLane="best" departSpeed="max">
        <route edges="62055779#1 -1073705832#2 -1073705832#0 97676931 -141180079#1 -141180079#0 58654498#1 1118804255 1073705831 1324597546 109691114#0 109691114#1 1073705829#0 1073705829#1 687003610#0 687003610#1 687003610#2 -1337777339 -1163003870#1 -1163003870#0 -1231722483 -1231722484 1231722484 1231722483 1163003870#0 1163003870#1 1073705821 -687003612#2 -687003612#1 -687003612#0 -1073705822 1324597560 -1326094893 -1073705828#1 -765716306 765716306 1073705828#1 1326094893 1329059764 1231937683 1118486328#0 1118486328#1 1118486327#0" />
    </vehicle>
    <vehicle id="changfeng20_4_34" type="veh_passenger" depart="2.125" departPos="random_free" arrivalPos="14.13" departLane="best" departSpeed="max">
        <route edges="1270411370 1270411355 687003614#0 687003614#1 1167550617#0 142638060#1 142638060#2 -109691095 1330117305 1329059766 1231937683 1118486328#0 1118486328#1 1073705819 1324597558 1092087672#0 1231722482 1118804255 1231722482 -58654498#1 141180079#0 141180079#1 -97676931 1073705832#0 -1073705832#0 97676931 -141180079#1 -141180079#0 58654498#1 1118804255 1073705831 1324597546 109691114#0 109691114#1 1073705829#0 1073705829#1 -687003612#2 -489493511#1 -489493512 -489493508#4" />
    </vehicle>
    <vehicle id="changfeng20_4_35" type="veh_passenger" depart="2.188" departPos="random_free" arrivalPos="78.64" departLane="best" departSpeed="max">
        <route edges="58654498#1 1118804255 1073705831 1324597546 1118486327#0 1118486327#1 1231722480 1118486325#0 1118486325#1 1118486325#2 44418748#0 -240679755 -142638060#1 -142638060#0 -1167550619#2 -687003614#0 1330557846" />
    </vehicle>
    <vehicle id="changfeng20_4_36" type="veh_passenger" depart="2.250" departPos="random_free" arrivalPos="92.42" departLane="best" departSpeed="max">
        <route edges="1073798764#0 1073798764#2 1073705826 1073798761 240679753#0 240679753#1 1324597544 1330117304#0 1330117305 1329059766 1231937683 1231722480 1118486325#0 1329059766 1231937683 -1231722479#1 -1231722479#0 1231722479#0 1231722479#1 1118486328#0 1118486328#1 109691114#0 109691114#1 -177811577#1" />
    </vehicle>
    <vehicle id="changfeng20_4_37" type="veh_passenger" depart="2.312" departPos="random_free" arrivalPos="31.39" departLane="best" departSpeed="max">
        <route edges="-177811579#0 142638060#1 142638060#2 -109691095 1330117305 1329059766 1231937683 1118486328#0 1118486328#1 109691114#0 109691114#1 1073705829#0 1073705829#1 -687003612#2 -687003612#1 -687003612#0 -1073705822 1324597560 1329059764 1118486325#0 1118486325#1 225277348 225277345#1 -177811579#2 -177811579#1 -177811579#0 -142638060#0 -1167550619#2 -687003614#0 -687003615 1270411373#1 1270581695#0 1270581695#1 -93173515#1 1478728470#0 1478728470#1 1478728470#2 1478728470#3 1478728471#0 -1478728475" />
    </vehicle>
    <vehicle id="changfeng20_4_38" type="veh_passenger" depart="2.375" departPos="random_free" arrivalPos="371.34" departLane="best" departSpeed="max">
        <route edges="177811577#0 -177811577#0 -372335514 1231722480 1118486325#0 1118486325#1 1118486325#2 44418748#0 -240679755 -142638060#1 -142638060#0 -1167550619#2 -687003614#0 -687003615 1270411373#1 1270581695#0 1270581695#1 1270411370 1270411355 687003614#0 225279017#0 -225279017#0 687003614#1 1167550617#0 142638060#1 142638060#2 -109691095 -1330117304#1 -1324597544" />
    </vehicle>
    <vehicle id="changfeng20_4_39" type="veh_passenger" depart="2.438" departPos="random_free" arrivalPos="7.97" departLane="best" departSpeed="max">
        <route edges="-225279017#1 -225279017#0 687003614#1 1167550617#0 142638060#1 142638060#2 -109691095 1330117305 1329059766 1231937683 1118486328#0 1118486328#1 1073705819 157810675#0 157810675#1 157810675#2 103783038 1118486327#0 1118486327#1 1231722480 1118486325#0 1118486325#1 1118486325#2 44418748#0 -240679755 -142638060#1 -142638060#0 1167550616#0 1515352061 -225279017#0 687003614#1 1167550617#0 142638060#1 142638060#2 -109691095 1330117305 1329059766 1231937683 1118486328#0 1118486328#1 1073705819 1324597558 1092087672#0 1231722482 -58654498#1 141180079#0 141180079#1 141180079#2 -141180079#2" />
    </vehicle>
    <vehicle id="changfeng20_4_40" type="veh_passenger" depart="2.500" departPos="random_free" arrivalPos="26.19" departLane="best" departSpeed="max">
        <route edges="489493508#3 489493508#4 489493508#5 -1073705827#1 -1073705827#0 -372335514 1231722480 1118486325#0 1118486325#1 1118486325#2 44418748#0 -240679755 -142638060#1 -142638060#0 1167550616#0 -687003613#0 1167550617#0 142638060#1 142638060#2 -109691095 1330117305 1329059766 1231937683 1118486328#0 1118486328#1 109691114#0 109691114#1 -177811577#1 -177811577#0 -1231937693 -1231937694 -1231937692 -1326094893 1337777328#0 1337777328#1 958876930 1073705824#1 1073798764#0 1073798764#2 1073705826 1073798761 240679753#0 240679753#1" />
    </vehicle>
    <vehicle id="changfeng20_4_41" type="veh_passenger" depart="2.562" departPos="random_free" arrivalPos="38.25" departLane="best" departSpeed="max">
        <route edges="1118486325#1 1118486325#2 44418748#0 -240679755 -142638060#1 -142638060#0 -1167550619#2 225279017#0 -1515352061 -687003613#0 1167550617#0 142638060#1 142638060#2 -109691095 1330117305 1329059766 1231937683 1118486328#0 1118486328#1 1073705819 1324597558 1092087672#0 1231722482 -58654498#1 141180079#0 141180079#1 -97676931 1073705832#0 -1073705832#0 97676931 -141180079#1 -141180079#0 58654498#1 1118804255 1073705831 -97676932#1 -97676932#0 -1478728470#4" />
    </vehicle>
    <vehicle id="changfeng20_4_42" type="veh_passenger" depart="2.625" departPos="random_free" arrivalPos="42.59" departLane="best" departSpeed="max">
        <route edges="-1478728474 -1478728471#1 -1478728471#0 1478728470#4 44418751 97676932#1 1324597546 1118486327#0 1118486327#1 1231722480 1118486325#0 1326094892 1337777328#0 1337777328#1 -813902631#2 -813902631#0 1324597544 1330117304#0 44418748#0 -240679755 -142638060#1 -142638060#0 1167550616#0 687003613#1 687003613#2" />
    </vehicle>
    <vehicle id="changfeng20_4_43" type="veh_passenger" depart="2.688" departPos="random_free" arrivalPos="17.86" departLane="best" departSpeed="max">
        <route edges="1324597546 1073705819 -97676932#1 -97676932#0 -1478728470#4 1478728471#0 -1478728475 1478728471#3 1478728471#4 1478728472 1478728470#2 1478728470#3 1478728470#4 44418751 97676932#1 1324597546 109691114#0 109691114#1 -177811577#1 -177811577#0 -372335514 372335514 1073705827#0 1073705827#1 -489493508#5 -489493508#4" />
    </vehicle>
    <vehicle id="changfeng20_4_44" type="veh_passenger" depart="2.750" departPos="random_free" arrivalPos="38.94" departLane="best" departSpeed="max">
        <route edges="1515352060 -687003613#2 -687003613#1 -687003613#0 -1167550619#2 -687003614#0 1330557846 1270411371#0 1270411371#1 1270411355 687003614#0 687003614#1 1167550616#0 687003613#1 687003613#2 -1515352060 -225279017#1 -225279017#0 687003614#1 1167550617#0 142638060#1 142638060#2 -109691095 1330117305 1329059766 1231937683 372335514 -1231937693" />
    </vehicle>
    <vehicle id="changfeng20_4_45" type="veh_passenger" depart="2.812" departPos="random_free" arrivalPos="5.13" departLane="best" departSpeed="max">
        <route edges="-687003613#2 -687003613#1 -687003613#0 1167550617#0 142638060#1 142638060#2 -109691095 1330117305 1329059766 1231937683 372335514 1073705827#0 1073705827#1 1073705827#2 489493511#0 -489493512 -489493508#4 -489493508#3 -489493508#2 -489493508#1 -489493508#0 -177811577#0 1073705827#0 1073705827#1 1073705827#2 1073705827#3 687003612#0" />
    </vehicle>
    <vehicle id="changfeng20_4_46" type="veh_passenger" depart="2.875" departPos="random_free" arrivalPos="42.16" departLane="best" departSpeed="max">
        <route edges="1478728471#2 1478728475 -1478728471#0 1478728470#4 44418751 97676932#1 1324597558 1092087672#0 1231722482 -58654498#1 141180079#0 141180079#1 141180079#2 -141180079#2 -141180079#1 -141180079#0 58654498#1 1118804255 1073705831 1324597546 1118486327#0 1118486327#1 1231722480 1118486325#0 1118486325#1 1118486325#2 44418748#0 -109691095 1330117305 1329059766 1231937683 372335514 1073705827#0 1073705827#1 1073705827#2 489493511#0 489493511#1" />
    </vehicle>
    <vehicle id="changfeng20_4_47" type="veh_passenger" depart="2.938" departPos="random_free" arrivalPos="21.66" departLane="best" departSpeed="max">