<?xml version='1.0' encoding='UTF-8'?>
<routes xmlns:xsi="http://www.w3.org/2001/XMLSchema-instance" xsi:noNamespaceSchemaLocation="http://sumo.dlr.de/xsd/routes_file.xsd">
    <vType id="veh_passenger" vClass="passenger" accel="2.6" decel="4.5" sigma="0.5" length="4.5" minGap="2.5" maxSpeed="15.555556" speedFactor="normc(1.00,0.10,0.70,1.30)" color="1,1,0" />
    <vehicle id="changfeng25_2_0" type="veh_passenger" depart="0.000" departPos="random_free" arrivalPos="483.75" departLane="best" departSpeed="max">
        <route edges="109691114#0 109691114#1 103783038 1073705819 1324597558 1027408000#0 1027408000#1 1073705831 1324597546 1118486327#0 1118486327#1 1231722480 1118486325#0 1118486325#1 1118486325#2 -1330117304#1 -1324597544 813902631#0 813902631#2 1073705822 -1073705822" />
    </vehicle>
    <vehicle id="changfeng25_2_1" type="veh_passenger" depart="0.050" departPos="random_free" arrivalPos="47.53" departLane="best" departSpeed="max">
        <route edges="68992985#1 68992985#2 -1275296713 -240679755 -142638060#1 -142638060#0 -1167550619#2 -687003614#0 -687003615 1270411373#1 1270581695#0 1270581695#1 -93173515#1 1478728470#0 1478728470#1 -1478728470#1 1478728470#1 1478728470#2 1478728470#3 1478728470#4 44418751 97676932#1 1324597546 1118486327#0 1118486327#1 1231722480 1118486325#0 1118486325#1 1118486325#2 -1330117304#1 -1324597544 -240679753#1 -240679753#0 -1073798761" />
    </vehicle>
    <vehicle id="changfeng25_2_2" type="veh_passenger" depart="0.100" departPos="random_free" arrivalPos="49.30" departLane="best" departSpeed="max">
        <route edges="1270581695#0 1270581695#1 1270411370 1270411355 687003614#0 687003614#1 1167550617#0 142638060#1 142638060#2 -109691095 1330117305 1329059766 1231937683 1118486328#0 1118486328#1 1118486327#0 1118486327#1 1231722480 1118486325#0 1118486325#1 1118486325#2 1330117300 1238502001" />
    </vehicle>
    <vehicle id="changfeng25_2_3" type="veh_passenger" depart="0.150" departPos="random_free" arrivalPos="8.81" departLane="best" departSpeed="max">
        <route edges="-177811579#1 -177811579#0 -142638060#0 -1167550619#2 -687003614#0 1330557846 1270411371#0 336728144 1270581695#1 1270411370 1270411355 1330557846 1270411371#0 1270411371#1 -1270411370 -93173515#1 1478728470#0 1478728470#1" />
    </vehicle>
    <vehicle id="changfeng25_2_4" type="veh_passenger" depart="0.200" departPos="random_free" arrivalPos="7.55" departLane="best" departSpeed="max">
        <route edges="-489493508#2 -489493508#1 -489493508#0 -177811577#0 -372335514 1231722480 1118486325#0 1118486325#1 1118486325#2 44418748#0 -240679755 -142638060#1 -142638060#0 -1167550619#2 -687003614#0 687003614#0 687003614#1 1167550616#0 -687003613#0 1167550617#0 142638060#1 142638060#2 -109691095 -1330117304#1 -1324597544 -240679753#1 -240679753#0 -1073798761 -1073705826 -1073798764#2 -1073798764#0" />
    </vehicle>
    <vehicle id="changfeng25_2_5" type="veh_passenger" depart="0.250" departPos="random_free" arrivalPos="120.86" departLane="best" departSpeed="max">
        <route edges="813902631#0 813902631#2 1073705822 687003612#0 687003612#1 687003612#2 687003610#0 687003610#1 687003610#2 -1337777339 -1163003870#1 -1163003870#0 -1231722483 -1231722484 1231722484 1231722483 1163003870#0 1163003870#1 1073705821 -687003612#2 -687003612#1 -687003612#0 -1073705822 1324597560 -1326094893 1337777328#0 765716306 -1073705828#0 1330117304#0 44418748#0 -240679755 -142638060#1 177811579#0 177811579#1" />
    </vehicle>
    <vehicle id="changfeng25_2_6" type="veh_passenger" depart="0.300" departPos="random_free" arrivalPos="20.20" departLane="best" departSpeed="max">
        <route edges="1163003870#1 1073705821 1330117302#0 1330117302#1 103783038 1118486327#0 1118486327#1 1231722480 1118486325#0 1118486325#1 1118486325#2 44418748#0 -240679755 -142638060#1 -142638060#0 1167550616#0 -687003613#0 1167550617#0 142638060#1 142638060#2 -109691095 1330117305 1329059766 1231937683 372335514 1073705827#0 -489493509 -489493508#2 -489493508#1 -489493508#0 -177811577#0 1073705827#0 1073705827#1 1073705827#2 1073705827#3 687003612#0 687003612#1" />
    </vehicle>
    <vehicle id="changfeng25_2_7" type="veh_passenger" depart="0.350" departPos="random_free" arrivalPos="399.79" departLane="best" departSpeed="max">
        <route edges="-163597880 -1073705832#2 -1073705832#0 97676931 -141180079#1 -141180079#0 58654498#1 1118804255 1073705831 -97676932#1 -97676932#0 -1478728470#4 -1478728470#3 -1478728473 -1478728471#3 1478728475 -1478728471#0 1478728470#4 44418751 97676932#1 1324597546 1118486327#0 1118486327#1 1231722480 1118486325#0 1326094892 1337777328#0 1337777328#1 958876930 1073705824#1 1073798764#0 1073798764#2 1073705826 1073798761 240679753#0 240679753#1 813902631#0 813902631#2 1324597560 1329059764" />
    </vehicle>
    <vehicle id="changfeng25_2_8" type="veh_passenger" depart="0.400" departPos="random_free" arrivalPos="119.29" departLane="best" departSpeed="max">
        <route edges="-1478728471#1 -1478728471#0 1478728470#4 44418751 97676932#1 1324597546 1118486327#0 1118486327#1 1231722480 1118486325#0 1118486325#1 1118486325#2 44418748#0 1275296713 -1275296713 -240679755 -142638060#1 177811579#0 177811579#1 177811579#2 -225277345#1 -225277351#0 1118486325#2 44418748#0 -240679755 -142638060#1 -142638060#0 -1167550619#2 -687003614#0 -687003615 1270411373#1 1270581695#0 1270581695#1 1270411370 1275296704#0 1275296704#1 -1275296704#1 -1275296704#0" />
    </vehicle>
    <vehicle id="changfeng25_2_9" type="veh_passenger" depart="0.450" departPos="random_free" arrivalPos="22.45" departLane="best" departSpeed="max">
        <route edges="1027408000#1 1073705831 1324597546 1118486327#0 1118486327#1 1231722480 1118486325#0 1118486325#1 1118486325#2 44418748#0 -240679755 -142638060#1 -142638060#0 -1167550619#2 -687003614#0 1330557846 1270411371#0 336728144 1270581695#1 1270411370 1270411355 687003614#0 687003614#1 1167550617#0 142638060#1 142638060#2 -109691095 1330117305 1329059766 1231937683 372335514 1073705827#0 1073705827#1 1073705827#2 -1073705827#2 -1073705827#1 -1073705827#0 177811577#0 177811577#1 103783038 1073705820 686928379" />
    </vehicle>
    <vehicle id="changfeng25_2_10" type="veh_passenger" depart="0.500" departPos="random_free" arrivalPos="6.25" departLane="best" departSpeed="max">
        <route edges="1118486325#0 1118486325#1 1118486325#2 44418748#0 -240679755 -142638060#1 -142638060#0 -1167550619#2 -687003614#0 -687003615 1270411373#1 1270581695#0 1270581695#1 -93173515#1 1478728470#0 -1478728471#5 1478728471#5 -1478728470#0 93173515#1 1270411370 1270411355 687003614#0 687003614#1 1167550617#0 142638060#1 142638060#2 -109691095 1330117305 1326094892 1337777328#0 1337777328#1 1324597560 1231937692 1231937694 1231937693 1073705827#0 1073705827#1 -489493508#5 -489493508#4" />
    </vehicle>
    <vehicle id="changfeng25_2_11" type="veh_passenger" depart="0.550" departPos="random_free" arrivalPos="17.99" departLane="best" departSpeed="max">
        <route edges="-62055779#0 62055779#0 62055779#1 -1073705832#2 -1073705832#0 97676931 -141180079#1 -141180079#0 58654498#1 1118804255 1073705831 1324597546 109691114#0 109691114#1 -177811577#1 489493508#0 489493508#1 489493508#2 489493509 -1073705827#0 -372335514 1231722480 1118486325#0 1118486325#1 1118486325#2 44418748#0 -240679755 -142638060#1 -142638060#0 1167550616#0 687003613#1 687003613#2 -687003613#2 -687003613#1 -687003613#0 1167550617#0 142638060#1 142638060#2 -109691095 1330117305 1329059766 1231937683 1118486328#0 1118486328#1 1118486327#0" />
    </vehicle>
    <vehicle id="changfeng25_2_12" type="veh_passenger" depart="0.600" departPos="random_free" arrivalPos="15.52" departLane="best" departSpeed="max">
        <route edges="62055779#0 62055779#1 -1073705832#2 -1073705832#0 97676931 -141180079#1 -141180079#0 58654498#1 1118804255 1073705831 1324597546 109691114#0 109691114#1 1073705829#0 1073705829#1 687003610#0 687003610#1 687003610#2 -1337777339 -1163003870#1 -1163003870#0 -1231722483 -1231722484 1231722484 1231722483 1163003870#0 1163003870#1 1073705821 687003610#0 225372592#0 225372592#1 -225372590#2 -225372591 687003612#1 687003612#2 1330117302#0 1330117302#1 -157810675#2 -157810675#1" />
    </vehicle>
    <vehicle id="changfeng25_2_13" type="veh_passenger" depart="0.650" departPos="random_free" arrivalPos="15.93" departLane="best" departSpeed="max">
        <route edges="1231937694 1231937693 1073705827#0 1073705827#1 1073705827#2 1073705827#3 336885597 225372590#0 -225372592#3 -225372592#2 -225372592#1 -225372592#0 687003610#1 687003610#2 -1337777339 -1163003870#1 -1163003870#0 -1231722483 -1231722484 1231722484 1231722483 1163003870#0 1163003870#1 -1163003870#1" />
    </vehicle>
    <vehicle id="changfeng25_2_14" type="veh_passenger" depart="0.700" departPos="random_free" arrivalPos="214.40" departLane="best" departSpeed="max">
        <route edges="-225277351#1 -225277351#0 1118486325#2 44418748#0 -240679755 -142638060#1 -142638060#0 1167550616#0 687003613#1 687003613#2 -687003613#2 -687003613#1 -687003613#0 1167550617#0 142638060#1 142638060#2 -109691095 -1330117304#1 -1324597544 -240679753#1 -240679753#0" />
    </vehicle>
    <vehicle id="changfeng25_2_15" type="veh_passenger" depart="0.750" departPos="random_free" arrivalPos="16.96" departLane="best" departSpeed="max">
        <route edges="-225372592#1 -225372592#0 687003610#1 687003610#2 -1337777339 1073705821 1330117302#0 1330117302#1 103783038 1073705819 157810675#0 157810675#1 157810675#2 -177811577#1 489493508#0 489493508#1 489493508#2 489493509 -1073705827#0 -372335514 1118486328#0 1118486328#1 1073705819 1324597558 1092087672#0 1231722482 -58654498#1 141180079#0 141180079#1 -97676931 1073705832#0 1073705832#1 -62055779#2 -62055779#0 62055779#0" />
    </vehicle>
    <vehicle id="changfeng25_2_16" type="veh_passenger" depart="0.800" departPos="random_free" arrivalPos="204.77" departLane="best" departSpeed="max">
        <route edges="225372590#0 -225372590#0 -336885597 -1073705827#3 -1073705827#2 -1073705827#1 -1073705827#0 -1231937693 -1231937694 -1231937692 1231937692 1231937694 1231937693 177811577#0 177811577#1 1073705829#0 1073705829#1 1330117302#0 1330117302#1 103783038 1073705819 -97676932#1 -97676932#0" />
    </vehicle>
    <vehicle id="changfeng25_2_17" type="veh_passenger" depart="0.850" departPos="random_free" arrivalPos="124.65" departLane="best" departSpeed="max">
        <route edges="489493509 -1073705827#0 -372335514 1231722480 1118486325#0 1118486325#1 1118486325#2 1330117305 1326094892 1337777328#0 1337777328#1 -813902631#2 -813902631#0 813902631#0 813902631#2 1073705822 336885597" />
    </vehicle>
    <vehicle id="changfeng25_2_18" type="veh_passenger" depart="0.900" departPos="random_free" arrivalPos="147.79" departLane="best" departSpeed="max">
        <route edges="1275296705 1167550617#0 142638060#1 142638060#2 -109691095 1330117305 1329059766 1231937683 372335514 177811577#0 177811577#1 1073705829#0 1073705829#1 -687003612#2 -687003612#1 -687003612#0 336885597 225372590#0 -225372590#0 -336885597 -1073705827#3 -1073705827#2 -1073705827#1 -1073705827#0 177811577#0 177811577#1" />
    </vehicle>
    <vehicle id="changfeng25_2_19" type="veh_passenger" depart="0.950" departPos="random_free" arrivalPos="49.66" departLane="best" departSpeed="max">
        <route edges="109691114#0 109691114#1 1073705829#0 1073705829#1 -687003612#2 -687003612#1 -687003612#0 -1073705827#3 -1073705827#2 -1073705827#1 -1073705827#0 -372335514 1231722480 1118486325#0 1118486325#1 1118486325#2 44418748#0 -240679755 -142638060#1 -142638060#0 1167550616#0 687003613#1 687003613#2 -687003613#2 -687003613#1 -687003613#0 1167550617#0 177811579#0 177811579#1 177811579#2 -177811579#2 -177811579#1" />
    </vehicle>
    <vehicle id="changfeng25_2_20" type="veh_passenger" depart="1.000" departPos="random_free" arrivalPos="219.90" departLane="best" departSpeed="max">
        <route edges="62055779#0 62055779#1 -1073705832#2 -1073705832#0 97676931 -141180079#1 -141180079#0 58654498#1 1118804255 1073705831 1324597546 109691114#0 109691114#1 1073705829#0 1073705829#1 -687003612#2 -687003612#1 -687003612#0 -1073705822 1324597560 1329059764 1118486325#0 1118486325#1 1118486325#2 1330117300 1238502000 1273359364 1118486326#0 1330117305 1329059766 1231937683 372335514 1073705827#0 1073705827#1 1073705827#2 1073705827#3 -1073705822" />
    </vehicle>
    <vehicle id="changfeng25_2_21" type="veh_passenger" depart="1.050" departPos="random_free" arrivalPos="154.13" departLane="best" departSpeed="max">
        <route edges="687003614#0 687003614#1 1167550616#0 687003613#1 687003613#2 -1515352060 -225279017#1 -225279017#0 687003614#1 1167550617#0 142638060#1 142638060#2 -109691095 1330117305 1329059766 1231937683 1118486328#0 1118486328#1 1073705819 1324597558 1092087672#0 1231722482 1118804255 1073705831 1324597546 1118486327#0 1118486327#1 1231722480 1118486325#0 1118486325#1 1118486325#2 44418748#0 -240679755 -142638060#1 -142638060#0 -1167550619#2 -687003614#0 -687003615 1270411373#1 1270581695#0" />
    </vehicle>
    <vehicle id="changfeng25_2_22" type="veh_passenger" depart="1.100" departPos="random_free" arrivalPos="17.82" departLane="best" departSpeed="max">
        <route edges="687003612#0 -687003612#0 -1073705822 1324597560 -1326094893 -1073705828#1 1073705828#1 1326094893 1231937692 1231937694 1231937693 1073705827#0 1073705827#1 1073705827#2 1073705827#3 -1073705827#3 -1073705827#2 -1073705827#1 -1073705827#0 -372335514 1118486328#0 1118486328#1" />
    </vehicle>
    <vehicle id="changfeng25_2_23" type="veh_passenger" depart="1.150" departPos="random_free" arrivalPos="100.15" departLane="best" departSpeed="max">
        <route edges="-1275296713 -109691095 1330117305 1329059766 1231937683 372335514 1073705827#0 1073705827#1 1073705827#2 1073705827#3 336885597 225372590#0 -225372592#3 -225372592#2 -225372592#1 -225372592#0 687003610#1 687003610#2 45167732 1073705821 1330117302#0 1330117302#1 1073705829#0" />
    </vehicle>
    <vehicle id="changfeng25_2_24" type="veh_passenger" depart="1.200" departPos="random_free" arrivalPos="44.94" departLane="best" departSpeed="max">
        <route edges="1118486327#0 1118486327#1 1231722480 1118486325#0 1326094892 1337777328#0 765716306 1073705828#1 1326094893 1231937692 1231937694 1231937693 1073705827#0 1073705827#1 1073705827#2 1073705827#3 336885597 225372590#0 225372590#1 225372590#2" />
    </vehicle>
    <vehicle id="changfeng25_2_25" type="veh_passenger" depart="1.250" departPos="random_free" arrivalPos="24.91" departLane="best" departSpeed="max">
        <route edges="225372590#2 225372592#2 225372592#3 -225372590#0 -336885597 -1073705827#3 -1073705827#2 -1073705827#1 -1073705827#0 -372335514 1231722480 1118486325#0 1118486325#1 1118486325#2 44418748#0 -240679755 -142638060#1 -142638060#0 -1167550619#2 -687003614#0 -687003615 1270411373#1 1270581695#0 1270581695#1 -93173515#1 1478728470#0 -1478728470#0" />
    </vehicle>
    <vehicle id="changfeng25_2_26" type="veh_passenger" depart="1.300" departPos="random_free" arrivalPos="135.34" departLane="best" departSpeed="max">
        <route edges="177811579#1 177811579#2 -225277345#1 -225277351#0 1118486325#2 1330117305 1329059766 1231937683 1118486328#0 1118486328#1 1118486327#0 1118486327#1 1118486328#0 1118486328#1 1073705819 157810675#0 157810675#1 157810675#2 103783038 1073705819 1324597558 1092087672#0 1231722482 -58654498#1 141180079#0 141180079#1 -97676931" />
    </vehicle>
    <vehicle id="changfeng25_2_27" type="veh_passenger" depart="1.350" departPos="random_free" arrivalPos="47.29" departLane="best" departSpeed="max">
        <route edges="225372590#1 -225372591 687003612#1 687003612#2 1330117302#0 1330117302#1 103783038 1073705819 -97676932#1 -97676932#0 -1478728470#4 1478728470#4 44418751 97676932#1 1324597546 109691114#0 109691114#1 1073705829#0 1073705829#1 687003610#0 687003610#1 687003610#2 -1337777339 1073705821 1330117302#0 1330117302#1 103783038 1073705819 1324597558 1092087672#0 1231722482 -58654498#1 141180079#0 141180079#1 -141180079#1" />
    </vehicle>
    <vehicle id="changfeng25_2_28" type="veh_passenger" depart="1.400" departPos="random_free" arrivalPos="75.99" departLane="best" departSpeed="max">
        <route edges="1337777328#0 1337777328#1 1073705822 336885597 225372590#0 -225372592#3 -225372592#2 -225372592#1 -225372592#0 687003610#1 687003610#2 -1337777339 1073705821 1330117302#0 1330117302#1 103783038 1073705819 1324597558 1027408000#0 103783034#2 1337777327 -131415374 103783036 1073705831 1324597546 1118486327#0 1118486327#1 1231722480 1118486325#0 1118486325#1 1118486325#2 44418748#0 -240679755 -142638060#1 -142638060#0 -1167550619#2 -687003614#0 1330557846" />
    </vehicle>
    <vehicle id="changfeng25_2_29" type="veh_passenger" depart="1.450" departPos="random_free" arrivalPos="145.70" departLane="best" departSpeed="max">
        <route edges="-1073705828#1 1073705828#1 1326094893 1329059764 1231937683 1118486328#0 1118486328#1 1073705819 -97676932#1 -97676932#0 -1478728470#4 1478728470#4 44418751 97676932#1 1324597546 1118486327#0 1118486327#1 1231722480 1118486325#0 1118486325#1 1118486325#2 44418748#0 -240679755 -142638060#1 -142638060#0 -1167550619#2 225279017#0 225279017#1 1515352060 -687003613#2 -687003613#1 -687003613#0 1167550617#0 142638060#1 142638060#2 -109691095 1330117305 1329059766 1231937683 372335514 1073705827#0 -489493509 489493509" />
    </vehicle>
    <vehicle id="changfeng25_2_30" type="veh_passenger" depart="1.500" departPos="random_free" arrivalPos="83.38" departLane="best" departSpeed="max">
        <route edges="-489493508#0 -177811577#0 -1231937693 -1231937694 -1231937692 -1326094893 1337777328#0 1337777328#1 1073705822 -1073705822 1324597560 1329059764 1231937683 1118486328#0 1118486328#1 1073705819 1324597558 1092087672#0" />
    </vehicle>
    <vehicle id="changfeng25_2_31" type="veh_passenger" depart="1.550" departPos="random_free" arrivalPos="38.36" departLane="best" departSpeed="max">
        <route edges="225277348 -225277351#0 1118486325#2 1330117305 1329059766 1231937683 1118486328#0 1118486328#1 109691114#0 109691114#1 1073705829#0 1073705829#1 687003610#0 225372592#0 225372592#1 -225372590#2 -225372591 687003612#1 687003612#2 1330117302#0 1330117302#1 103783038 109691114#0 109691114#1 103783038 1118486327#0 1118486327#1 1231722480 1118486325#0 1118486325#1 225277348 225277351#1" />
    </vehicle>
    <vehicle id="changfeng25_2_32" type="veh_passenger" depart="1.600" departPos="random_free" arrivalPos="60.51" departLane="best" departSpeed="max">
        <route edges="240679753#1 813902631#0 813902631#2 1073705822 336885597 225372590#0 -225372592#3 -225372592#2 -225372592#1 -225372592#0 687003610#1 687003610#2 -1337777339 1073705821 -687003612#2 -489493511#1 -489493511#0 -1073705827#2 -1073705827#1 -1073705827#0 -372335514 1231722480 1118486325#0 1118486325#1 1118486325#2 44418748#0 -240679755 -142638060#1 -142638060#0 1167550616#0 687003613#1 687003613#2" />
    </vehicle>
    <vehicle id="changfeng25_2_33" type="veh_passenger" depart="1.650" departPos="random_free" arrivalPos="2.12" departLane="best" departSpeed="max">
        <route edges="-1073705827#1 -1073705827#0 -372335514 1118486328#0 1118486328#1 1073705819 1324597558 1092087672#0 1231722482 -58654498#1 141180079#0 141180079#1 -97676931 1073705832#0 1073705832#1 -62055779#2 -62055779#0 62055779#0 62055779#1 -1073705832#2 -1073705832#0 97676931 -141180079#1 -141180079#0 58654498#1 1118804255 1073705831 1324597546 1118486327#0 1118486327#1 1231722480 1118486325#0 1118486325#1 1118486325#2 -1330117304#1 -1324597544 -240679753#1 -240679753#0 -1073798761 -1073705826 -1073798764#2 -1073798764#0 -1073705824#1 -1073705824#0 225378733 1324597560 1329059764 1231937683 1118486328#0 1118486328#1 1073705819 1324597558 1027408000#0" />
    </vehicle>
    <vehicle id="changfeng25_2_34" type="veh_passenger" depart="1.700" departPos="random_free" arrivalPos="150.89" departLane="best" departSpeed="max">
        <route edges="-141180079#1 -141180079#0 58654498#1 1118804255 1073705831 1324597546 1118486327#0 1118486327#1 1231722480 1118486325#0 1118486325#1 1118486325#2 1330117305 1329059766 1118486325#0 1118486325#1 1118486325#2 44418748#0 -240679755 -142638060#1 -142638060#0 -1167550619#2 -687003614#0 -687003615 1270411373#1 1270581695#0 1270581695#1 1270411370 1270411355 687003614#0 687003614#1 1167550617#0 142638060#1 142638060#2 -109691095 1330117305 1326094892 1337777328#0 1337777328#1" />
    </vehicle>
    <vehicle id="changfeng25_2_35" type="veh_passenger" depart="1.750" departPos="random_free" arrivalPos="80.38" departLane="best" departSpeed="max">
        <route edges="1073705828#1 1326094893 1231937692 1231937694 1231937693 1073705827#0 1073705827#1 -1073705827#1 -1073705827#0 -1231937693 -1231937694 -1231937692 1329059764 1118486325#0 1118486325#1 1118486325#2 44418748#0 -240679755 -142638060#1 -142638060#0 -1167550619#2 -687003614#0 -687003615 1270411373#1 1270581695#0 1270581695#1 1270411370 1275296704#0 1275296704#1 -1275296704#1 -1275296704#0" />
    </vehicle>
    <vehicle id="changfeng25_2_36" type="veh_passenger" depart="1.800" departPos="random_free" arrivalPos="6.77" departLane="best" departSpeed="max">
        <route edges="-177811577#0 -1231937693 -1231937694 -1231937692 -1326094893 1337777328#0 1337777328#1 958876930 1073705824#1 1073798764#0 1073798764#2 1073705826 1073798761 240679753#0 240679753#1 813902631#0 813902631#2 1073705822 687003612#0 687003612#1 687003612#2 1330117302#0 1330117302#1 -177811577#1 -177811577#0 -372335514 1231722480 1118486325#0 1329059766" />
    </vehicle>
    <vehicle id="changfeng25_2_37" type="veh_passenger" depart="1.850" departPos="random_free" arrivalPos="129.25" departLane="best" departSpeed="max">
        <route edges="177811578 1330117304#0 44418748#0 -240679755 -142638060#1 -142638060#0 -1167550619#2 -687003614#0 -687003615 1270411373#1 1270581695#0 1270581695#1 1270411370 1275296704#0 1275296704#1 -1275296704#1 -1275296704#0 1270411355 687003614#0 687003614#1 1167550617#0 142638060#1 142638060#2 -109691095 -1330117304#1 -1324597544 -240679753#1 -240679753#0 -1073798761 -1073705826 -1073798764#2 -1073798764#0 -1073705824#1 -1073705824#0 225378733 1324597560 1329059764 1231937683 1118486328#0 1118486328#1 1073705819 -97676932#1 -97676932#0 -1478728470#4 1478728470#4 44418751 97676932#1" />
    </vehicle>
    <vehicle id="changfeng25_2_38" type="veh_passenger" depart="1.900" departPos="random_free" arrivalPos="25.91" departLane="best" departSpeed="max">
        <route edges="-225277345#2 -225277345#1 225277345#1 -177811579#2 -177811579#1 -177811579#0 -142638060#0 1167550616#0 1515352061 -225279017#0 687003614#1 1167550617#0 142638060#1 142638060#2 -109691095 1330117305 1329059766 1231937683 1118486328#0 1118486328#1 109691114#0" />
    </vehicle>
    <vehicle id="changfeng25_2_39" type="veh_passenger" depart="1.950" departPos="random_free" arrivalPos="305.44" departLane="best" departSpeed="max">
        <route edges="687003615 687003614#0 687003614#1 1167550617#0 142638060#1 142638060#2 -109691095 1330117305 1329059766 1231937683 1118486328#0 1118486328#1 1073705819 1324597558 1092087672#0 1231722482 -58654498#1 58654498#1 1118804255 1073705831 1324597546 1118486327#0 1118486327#1 1231722480 1118486325#0 1326094892 1337777328#0 1337777328#1 -813902631#2 -813902631#0 1324597544 1073705828#0 1073705828#1 1326094893 1231937692 1231937694 1231937693 177811577#0 177811577#1 1073705829#0 1073705829#1" />
    </vehicle>
    <vehicle id="changfeng25_2_40" type="veh_passenger" depart="2.000" departPos="random_free" arrivalPos="156.59" departLane="best" departSpeed="max">
        <route edges="68992985#2 -1275296713 -240679755 -142638060#1 177811579#0 177811579#1 177811579#2 -225277345#1 -225277351#0 1118486325#2 1330117305 1329059766 1231937683 372335514 1073705827#0 -489493509 489493508#3 489493508#4 489493508#5 -1073705827#1 -1073705827#0 -372335514 1231722480 1118486325#0 1118486325#1 1118486325#2 44418748#0 -240679755 -142638060#1 -142638060#0 -1167550619#2 -687003614#0 -687003615 1270411373#1 1270581695#0" />
    </vehicle>
    <vehicle id="changfeng25_2_41" type="veh_passenger" depart="2.050" departPos="random_free" arrivalPos="48.27" departLane="best" departSpeed="max">
        <route edges="1073705824#1 1073798764#0 1073798764#2 1073705826 1073798761 240679753#0 240679753#1 1324597544 1330117304#0 1330117300 1238502000 1273359364 1118486326#0 1330117305 1329059766 1231937683 1118486328#0 1118486328#1 1118486327#0 1118486327#1 1118486328#0 1118486328#1 1073705819 1324597558" />
    </vehicle>
    <vehicle id="changfeng25_2_42" type="veh_passenger" depart="2.100" departPos="random_free" arrivalPos="20.14" departLane="best" departSpeed="max">
        <route edges="97676932#1 1324597558 1092087672#0 1231722482 -58654498#1 141180079#0 141180079#1 -97676931 1073705832#0 -1073705832#0 97676931 -141180079#1 -141180079#0 58654498#1 1118804255 1073705831 1324597546 109691114#0 109691114#1 1073705829#0 1073705829#1 687003610#0 687003610#1 687003610#2 -1337777339 1073705821 687003610#0 687003610#1 687003610#2" />
    </vehicle>
    <vehicle id="changfeng25_2_43" type="veh_passenger" depart="2.150" departPos="random_free" arrivalPos="80.28" departLane="best" departSpeed="max">
        <route edges="142638060#1 142638060#2 -109691095 1330117305 1326094892 1337777328#0 1337777328#1 1073705822 -1073705827#3 -1073705827#2 -1073705827#1 -1073705827#0 -372335514 1231722480 1118486325#0 1118486325#1 1118486325#2 1330117300 1238502000 1273359364 1118486326#0 1330117305 1329059766 1231937683 1118486328#0 1118486328#1 1073705819 -97676932#1 -97676932#0 -1478728470#4 1478728471#0 -1478728475 1478728475" />
    </vehicle>
    <vehicle id="changfeng25_2_44" type="veh_passenger" depart="2.200" departPos="random_free" arrivalPos="347.25" departLane="best" departSpeed="max">
        <route edges="225372592#1 -225372590#2 -225372591 687003612#1 -489493511#1 489493511#1 687003612#2 1330117302#0 1330117302#1 103783038 1073705819 -97676932#1 -97676932#0 -1478728470#4 -1478728470#3 -1478728473 -1478728471#3 1478728475 -1478728471#0 1478728470#4 44418751 97676932#1 1324597546 109691114#0 109691114#1 1073705829#0 1073705829#1" />
    </vehicle>
    <vehicle id="changfeng25_2_45" type="veh_passenger" depart="2.250" departPos="random_free" arrivalPos="18.82" departLane="best" departSpeed="max">
        <route edges="1478728470#1 -1478728470#1 -1478728470#0 93173515#1 1270411370 1270411355 687003614#0 687003614#1 1167550617#0 142638060#1 142638060#2 -109691095 -1330117304#1 1330117304#0 -1330117304#1 -1324597544 -1073705825" />
    </vehicle>
    <vehicle id="changfeng25_2_46" type="veh_passenger" depart="2.300" departPos="random_free" arrivalPos="69.26" departLane="best" departSpeed="max">
        <route edges="-225372592#3 -225372592#2 -225372590#2 -225372590#1 -225372590#0 -336885597 -1073705827#3 -1073705827#2 -489493508#5 -489493508#4 -489493508#3 -489493508#2 -489493508#1 -489493508#0 177811577#1 103783038 1073705819 -97676932#1 -97676932#0 -1478728470#4 1478728471#0 -1478728475 1478728471#3 1478728471#4 1478728472 -1478728470#1 -1478728470#0 93173515#1 1270411370 1270411355 687003614#0 687003614#1 1167550617#0 142638060#1 142638060#2 -109691095 1330117305 1326094892" />
    </vehicle>
    <vehicle id="changfeng25_2_47" type="veh_passenger" depart="2.350" departPos="random_free" arrivalPos="5.60" departLane="best" departSpeed="max">
        <route edges="489493508#2 489493509 -1073705827#0 -372335514 1118486328#0 1118486328#1 1073705819 -97676932#1 -97676932#0 -1478728470#4 -1478728470#3 -1478728470#2 1478728470#2 -1478728470#2 -1478728470#1 -1478728470#0 93173515#1 -93173515#1 93173515#1 1270411370 1270411355 687003614#0 687003614#1 1167550617#0 142638060#1 142638060#2 -109691095 1330117305 1329059766 1231937683 372335514 1073705827#0 -1073705827#0" />
    </vehicle>
    <vehicle id="changfeng25_2_48" type="veh_passenger" depart="2.400" departPos="random_free" arrivalPos="197.16" departLane="best" departSpeed="max">
        <route edges="-225277351#0 1118486325#2 1330117305 1329059766 1231937683 1118486328#0 1118486328#1 109691114#0 109691114#1 1073705829#0 1073705829#1 -687003612#2 -489493511#1 489493511#1 687003612#2 1330117302#0 1330117302#1 -177811577#1 -177811577#0 -372335514 1231722480 1118486325#0 1118486325#1 1118486325#2 44418748#0 -240679755 -142638060#1 -142638060#0 -1167550619#2 225279017#0 225279017#1 1515352060" />
    </vehicle>
    <vehicle id="changfeng25_2_49" type="veh_passenger" depart="2.450" departPos="random_free" arrivalPos="30.29" departLane="best" departSpeed="max">
        <route edges="-1073705826 -1073798764#2 -1073798764#0 -1073705824#1 -1073705824#0 225378733 1324597560 1329059764 1231937683 1118486328#0 1118486328#1 1073705819 -97676932#1 -97676932#0 -1478728470#4 1478728471#0 -1478728475 1478728471#3 1478728473 1478728470#3 1478728470#4 44418751 97676932#1 1324597546 109691114#0 109691114#1 1073705829#0 1073705829#1 -687003612#2 -687003612#1 687003612#1 687003612#2 1330117302#0 1330117302#1 103783038 1118486327#0 1118486327#1 1231722480 1118486325#0 1118486325#1 225277348 225277351#1" />
    </vehicle>
    <vehicle id="changfeng25_2_50" type="veh_passenger" depart="2.500" departPos="random_free" arrivalPos="25.60" departLane="best" departSpeed="max">