<?xml version='1.0' encoding='UTF-8'?>
<routes xmlns:xsi="http://www.w3.org/2001/XMLSchema-instance" xsi:noNamespaceSchemaLocation="http://sumo.dlr.de/xsd/routes_file.xsd">
    <vType id="veh_passenger" vClass="passenger" accel="2.6" decel="4.5" sigma="0.5" length="4.5" minGap="2.5" maxSpeed="15.555556" speedFactor="normc(1.00,0.10,0.70,1.30)" color="1,1,0" />
    <vehicle id="changfeng50_3_0" type="veh_passenger" depart="0.000" departPos="random_free" arrivalPos="23.29" departLane="best" departSpeed="max">
        <route edges="58654498#0 58654498#1 1118804255 1073705831 1324597546 1118486327#0 1118486327#1 1231722480 1118486325#0 1118486325#1 1118486325#2 44418748#0 -240679755 -142638060#1 177811579#0 177811579#1 177811579#2 -225277345#1 -225277351#0 1118486325#2 1330117305 1329059766 1231937683 1118486328#0 1118486328#1 109691114#0 109691114#1 1073705829#0 1073705829#1 687003610#0 687003610#1 687003610#2 -1337777339 1073705821 1330117302#0 1330117302#1 103783038 1073705819 1324597558 1092087672#0 1231722482 -58654498#1 141180079#0 141180079#1 -97676931 1073705832#0 1073705832#1 -62055779#2 -62055779#0 62055779#0 62055779#1" />
    </vehicle>
    <vehicle id="changfeng50_3_1" type="veh_passenger" depart="0.025" departPos="random_free" arrivalPos="16.08" departLane="best" departSpeed="max">
        <route edges="109691114#0 109691114#1 103783038 1118486327#0 1118486327#1 1231722480 1118486325#0 1118486325#1 225277348 225277345#1 -177811579#2 -177811579#1 -177811579#0 142638060#1 142638060#2 -109691095 1330117305 1329059766 1231937683 1118486328#0 1118486328#1 109691114#0 109691114#1 -177811577#1 489493508#0 489493508#1 489493508#2 -489493508#2" />
    </vehicle>
    <vehicle id="changfeng50_3_2" type="veh_passenger" depart="0.050" departPos="random_free" arrivalPos="16.21" departLane="best" departSpeed="max">
        <route edges="1231722480 1118486325#0 1329059766 1231937683 1118486328#0 1118486328#1 109691114#0 109691114#1 -157810675#2 -157810675#1 -157810675#0 1324597546 1118486327#0 1118486327#1 1231722480 1118486325#0 1118486325#1 1118486325#2 44418748#0 -240679755 -142638060#1 -142638060#0 -1167550619#2 -687003614#0 -687003615 687003615 687003614#0 687003614#1 1167550617#0 142638060#1 142638060#2 -109691095 1330117305 1329059766 1231937683 1118486328#0 1118486328#1 1073705819 -97676932#1 -97676932#0 -1478728470#4" />
    </vehicle>
    <vehicle id="changfeng50_3_3" type="veh_passenger" depart="0.075" departPos="random_free" arrivalPos="11.19" departLane="best" departSpeed="max">
        <route edges="1478728472 1478728470#2 -1478728470#2 -1478728470#1 -1478728470#0 93173515#1 1270411370 1270411355 687003614#0 687003614#1 1167550617#0 142638060#1 142638060#2 -109691095 1330117305 1329059766 1231937683 372335514 1073705827#0 -489493509 489493508#3" />
    </vehicle>
    <vehicle id="changfeng50_3_4" type="veh_passenger" depart="0.100" departPos="random_free" arrivalPos="2.21" departLane="best" departSpeed="max">
        <route edges="97676932#1 1324597546 1118486327#0 1118486327#1 1231722480 1118486325#0 1118486325#1 1118486325#2 44418748#0 -240679755 -142638060#1 -142638060#0 1167550616#0 687003613#1 687003613#2 -1515352060 -225279017#1 -225279017#0 687003614#1 1167550617#0 142638060#1 142638060#2 -109691095 1330117305 1329059766 1231937683 372335514 1073705827#0 1073705827#1 -489493508#5 489493512 489493511#1 -687003612#1 -687003612#0 -1073705822 958876930 1073705824#1 1073798764#0" />
    </vehicle>
    <vehicle id="changfeng50_3_5" type="veh_passenger" depart="0.125" departPos="random_free" arrivalPos="92.33" departLane="best" departSpeed="max">
        <route edges="-1073705827#3 -1073705827#2 -1073705827#1 -1073705827#0 -372335514 1231722480 1118486325#0 1118486325#1 1118486325#2 44418748#0 -240679755 -142638060#1 -142638060#0 -1167550619#2 687003614#1 1167550617#0 177811579#0 177811579#1 177811579#2 -177811579#2 -177811579#1 -177811579#0 142638060#1 142638060#2 -109691095 1330117305 1329059766 1231937683 372335514 1073705827#0 1073705827#1 1073705827#2 1073705827#3 687003612#0 687003612#1" />
    </vehicle>
    <vehicle id="changfeng50_3_6" type="veh_passenger" depart="0.150" departPos="random_free" arrivalPos="4.03" departLane="best" departSpeed="max">
        <route edges="-225277345#1 -225277351#0 1118486325#2 1330117305 1329059766 1118486325#0 1118486325#1 225277348 -225277351#0 1118486325#2 1330117305 1329059766 1231937683 1118486328#0 1118486328#1 1073705819 1324597558 1027408000#0 103783034#2 1337777327 -131415374 103783036" />
    </vehicle>
    <vehicle id="changfeng50_3_7" type="veh_passenger" depart="0.175" departPos="random_free" arrivalPos="21.48" departLane="best" departSpeed="max">
        <route edges="1118486325#2 1330117305 1326094892 1326094893 1329059764 1231937683 1118486328#0 1118486328#1 1073705819 -97676932#1 -97676932#0 -1478728470#4 1478728471#0 1478728471#1 -1478728471#1 -1478728471#0 1478728470#4 44418751 97676932#1 1324597558 1092087672#0 1231722482 -58654498#1 141180079#0 141180079#1 -97676931 1073705832#0 1073705832#1" />
    </vehicle>
    <vehicle id="changfeng50_3_8" type="veh_passenger" depart="0.200" departPos="random_free" arrivalPos="93.76" departLane="best" departSpeed="max">
        <route edges="-1478728473 1478728471#4 1478728471#5 -1478728470#0 93173515#1 1270411370 1270411355 687003614#0 687003614#1 1167550617#0 142638060#1 142638060#2 -109691095 -1330117304#1 -1324597544 813902631#0 813902631#2 958876930 1073705824#1 1073798764#0 1073798764#2 1073705826 1073798761 240679753#0 240679753#1 1324597544 1330117304#0 44418748#0 -240679755 -142638060#1 177811579#0" />
    </vehicle>
    <vehicle id="changfeng50_3_9" type="veh_passenger" depart="0.225" departPos="random_free" arrivalPos="16.37" departLane="best" departSpeed="max">
        <route edges="-1073705827#1 -1073705827#0 177811577#0 177811577#1 1073705829#0 1073705829#1 -687003612#2 -687003612#1 -687003612#0 -1073705827#3 -1073705827#2 1073705827#2 1073705827#3 -1073705822 1324597560 1329059764 1118486325#0 1118486325#1 1118486325#2 1330117300 1238502000 1273359364" />
    </vehicle>
    <vehicle id="changfeng50_3_10" type="veh_passenger" depart="0.250" departPos="random_free" arrivalPos="11.74" departLane="best" departSpeed="max">
        <route edges="-97676931 1073705832#0 -1073705832#0 97676931 -141180079#1 -141180079#0 58654498#1 1118804255 1073705831 1324597546 109691114#0 109691114#1 1073705829#0 1073705829#1 687003610#0 225372592#0 225372592#1 -225372590#2 -225372590#1 -225372590#0 -336885597 687003612#0 687003612#1 687003612#2 1330117302#0 1330117302#1 103783038 1073705819 -97676932#1 -97676932#0 -1478728470#4 1478728470#4 44418751 97676932#1 1324597558 1092087672#0 1231722482 -58654498#1 141180079#0 141180079#1" />
    </vehicle>
    <vehicle id="changfeng50_3_11" type="veh_passenger" depart="0.275" departPos="random_free" arrivalPos="35.43" departLane="best" departSpeed="max">
        <route edges="687003614#1 1167550617#0 142638060#1 142638060#2 -109691095 1330117305 1329059766 1231937683 372335514 -1231937693 -1231937694 -1231937692 1329059764 1231937683 1118486328#0 1118486328#1 1073705819 1324597558 1092087672#0 1231722482 -58654498#1 141180079#0 141180079#1 -141180079#1 -141180079#0 58654498#1 1118804255 1073705831 1324597546 109691114#0 109691114#1 -177811577#1 -177811577#0 -1231937693 -1231937694" />
    </vehicle>
    <vehicle id="changfeng50_3_12" type="veh_passenger" depart="0.300" departPos="random_free" arrivalPos="12.05" departLane="best" departSpeed="max">
        <route edges="-225372592#2 -225372590#2 -225372591 -687003612#0 -1073705822 -813902631#2 -813902631#0 1324597544 1330117304#0 1330117305 1329059766 1118486325#0 1326094892 1337777328#0 1337777328#1 958876930 -1073705824#0 -336885594 336885594 1073705824#0" />
    </vehicle>
    <vehicle id="changfeng50_3_13" type="veh_passenger" depart="0.325" departPos="random_free" arrivalPos="46.14" departLane="best" departSpeed="max">
        <route edges="225372591 -225372591 687003612#1 687003612#2 1330117302#0 1330117302#1 103783038 109691114#0 109691114#1 1073705829#0 1073705829#1 687003610#0 687003610#1 687003610#2 -1337777339 1073705821 1330117302#0 1330117302#1 103783038 1073705819 1324597558 1092087672#0 1231722482 -58654498#1 141180079#0 141180079#1 -141180079#1 -141180079#0" />
    </vehicle>
    <vehicle id="changfeng50_3_14" type="veh_passenger" depart="0.350" departPos="random_free" arrivalPos="14.57" departLane="best" departSpeed="max">
        <route edges="225279017#0 -1515352061 -687003613#0 1167550617#0 142638060#1 142638060#2 -109691095 1330117305 1329059766 1231937683 372335514 177811577#0 489493508#0 489493508#1 489493508#2 489493509 -1073705827#0 -372335514 1118486328#0 1118486328#1 1073705819 -97676932#1 -97676932#0 -1478728470#4 1478728471#0 -1478728475 1478728471#3 1478728471#4 1478728471#5 1478728470#1" />
    </vehicle>
    <vehicle id="changfeng50_3_15" type="veh_passenger" depart="0.375" departPos="random_free" arrivalPos="138.81" departLane="best" departSpeed="max">
        <route edges="-177811579#2 -177811579#1 -177811579#0 142638060#1 142638060#2 -240679755 -142638060#1 -142638060#0 -1167550619#2 -687003614#0 -687003615 1270411373#1 1270581695#0 1270581695#1 -93173515#1 93173515#1 1270411370 1270411355 687003614#0 687003614#1 1167550617#0 142638060#1 142638060#2 -109691095 1330117305 1329059766 1231937683 1118486328#0 1118486328#1 1118486327#0 1118486327#1" />
    </vehicle>
    <vehicle id="changfeng50_3_16" type="veh_passenger" depart="0.400" departPos="random_free" arrivalPos="221.70" departLane="best" departSpeed="max">
        <route edges="1478728471#2 1478728475 -1478728471#0 1478728470#4 44418751 97676932#1 1324597546 109691114#0 109691114#1 1073705829#0 1073705829#1 687003610#0 687003610#1 687003610#2 -1337777339 1073705821 1330117302#0 1330117302#1 103783038 1073705819 -97676932#1 -97676932#0 -1478728470#4 1478728470#4 44418751" />
    </vehicle>
    <vehicle id="changfeng50_3_17" type="veh_passenger" depart="0.425" departPos="random_free" arrivalPos="5.71" departLane="best" departSpeed="max">
        <route edges="-225279017#1 -225279017#0 687003614#1 1167550617#0 142638060#1 142638060#2 -109691095 1330117305 1329059766 1231937683 1118486328#0 1118486328#1 109691114#0 109691114#1 -157810675#2 -157810675#1 -157810675#0 1324597546 109691114#0 109691114#1 1073705829#0 1073705829#1 -687003612#2 -687003612#1 -687003612#0 -1073705822 1324597560 1329059764 1118486325#0 1118486325#1 1118486325#2 44418748#0 -240679755 -142638060#1 177811579#0 177811579#1" />
    </vehicle>
    <vehicle id="changfeng50_3_18" type="veh_passenger" depart="0.450" departPos="random_free" arrivalPos="0.93" departLane="best" departSpeed="max">
        <route edges="1163003870#0 1163003870#1 1073705821 1330117302#0 1330117302#1 103783038 1118486327#0 1118486327#1 1231722480 1118486325#0 1118486325#1 1118486325#2 44418748#0 -240679755 -142638060#1 -142638060#0 -1167550619#2 -687003614#0 -687003615 1270411373#1 1270581695#0 1270581695#1 -93173515#1 93173515#1 1270411370 1270411355 687003614#0 687003614#1 1167550617#0 142638060#1 142638060#2 -109691095 1330117305 1329059766 1231937683 1118486328#0 1118486328#1 109691114#0 109691114#1 1073705829#0 1073705829#1 687003610#0 687003610#1 687003610#2 -1337777339 1073705821 1330117302#0 1330117302#1 103783038 1073705819 1324597558 1092087672#0 1231722482" />
    </vehicle>
    <vehicle id="changfeng50_3_19" type="veh_passenger" depart="0.475" departPos="random_free" arrivalPos="11.77" departLane="best" departSpeed="max">
        <route edges="1231722484 1231722483 1163003870#0 1163003870#1 1073705821 1330117302#0 1330117302#1 103783038 1118486327#0 1118486327#1 1231722480 1118486325#0 1118486325#1 1118486325#2 44418748#0 -240679755 -142638060#1 -142638060#0 1167550617#0 142638060#1 142638060#2 -109691095 1330117305 1326094892 1337777328#0 765716306 1073705828#1 1326094893 1231937692 1231937694 1231937693 177811577#0 489493508#0 489493508#1" />
    </vehicle>
    <vehicle id="changfeng50_3_20" type="veh_passenger" depart="0.500" departPos="random_free" arrivalPos="36.76" departLane="best" departSpeed="max">
        <route edges="687003615 687003614#0 687003614#1 1167550617#0 142638060#1 142638060#2 -109691095 1330117305 1329059766 1231937683 372335514 177811577#0 489493508#0 489493508#1 489493508#2 489493509 -1073705827#0 -372335514 1231722480 1118486325#0 1118486325#1 1118486325#2 44418748#0 -240679755 -142638060#1 -142638060#0 -1167550619#2 -687003614#0 -687003615 687003615 687003614#0 687003614#1 1167550617#0 142638060#1 142638060#2 -109691095 1330117305 1329059766 1231937683 1118486328#0 1118486328#1 1073705819 1324597558 1092087672#0 1231722482 -58654498#1 141180079#0 141180079#1 -97676931 1073705832#0 1073705832#1 -62055779#2 -62055779#0 62055779#0" />
    </vehicle>
    <vehicle id="changfeng50_3_21" type="veh_passenger" depart="0.525" departPos="random_free" arrivalPos="29.98" departLane="best" departSpeed="max">
        <route edges="1324597546 1073705819 1324597558 1092087672#0 1231722482 1118804255 1073705831 1324597546 109691114#0 109691114#1 -177811577#1 489493508#0 489493508#1 489493508#2 489493508#3 489493508#4 489493508#5 1073705827#2" />
    </vehicle>
    <vehicle id="changfeng50_3_22" type="veh_passenger" depart="0.550" departPos="random_free" arrivalPos="395.29" departLane="best" departSpeed="max">
        <route edges="1478728471#1 -1478728471#1 -1478728471#0 1478728470#4 44418751 97676932#1 1324597546 1118486327#0 1118486327#1 1231722480 1118486325#0 1329059766 1231937683 1231722480 1118486325#0 1326094892 1337777328#0 1337777328#1 958876930 1073705824#1 1073798764#0 1073798764#2 1073705826 1073798761 240679753#0 240679753#1 1324597544 -1324597544" />
    </vehicle>
    <vehicle id="changfeng50_3_23" type="veh_passenger" depart="0.575" departPos="random_free" arrivalPos="39.23" departLane="best" departSpeed="max">
        <route edges="336885597 225372590#0 -225372590#0 -336885597 -1073705827#3 -1073705827#2 -1073705827#1 -1073705827#0 -372335514 1231722480 1118486325#0 1118486325#1 1118486325#2 44418748#0 -240679755 -142638060#1 -142638060#0 -1167550619#2 -687003614#0 1330557846 1270411371#0 336728144 1270581695#1 1270411370 1270411355 687003614#0 687003614#1 1167550617#0 142638060#1 142638060#2 -109691095 1330117305 1329059766 1231937683 -1231722479#1 -1231722479#0 1231722479#0 1231722479#1" />
    </vehicle>
    <vehicle id="changfeng50_3_24" type="veh_passenger" depart="0.600" departPos="random_free" arrivalPos="17.14" departLane="best" departSpeed="max">
        <route edges="-157810675#0 1324597546 1118486327#0 1118486327#1 1231722480 1118486325#0 1118486325#1 1118486325#2 44418748#0 1275296713 -1275296713 -109691095 -1330117304#1 -1324597544 813902631#0 813902631#2 1324597560 1329059764 1118486325#0 1118486325#1 1118486325#2 44418748#0 -240679755 -142638060#1 -142638060#0 -1167550619#2 -687003614#0 -687003615 1270411373#1 1270581695#0 1270581695#1 -93173515#1 1478728470#0" />
    </vehicle>
    <vehicle id="changfeng50_3_25" type="veh_passenger" depart="0.625" departPos="random_free" arrivalPos="0.14" departLane="best" departSpeed="max">
        <route edges="489493508#3 489493508#4 489493508#5 -1073705827#1 -1073705827#0 -372335514 1231722480 1118486325#0 1118486325#1 1118486325#2 44418748#0 -240679755 -142638060#1 177811579#0 177811579#1 177811579#2 -177811579#2 -177811579#1 -177811579#0 -142638060#0 -1167550619#2 -687003614#0 -687003615 1270411373#1 1270581695#0 1270581695#1 -93173515#1 93173515#1 1270411370 1270411355 687003614#0 687003614#1 1167550617#0 142638060#1 142638060#2 -109691095 1330117305 1329059766 1231937683 1118486328#0 1118486328#1 1073705819 1324597558 1092087672#0 103783034#1" />
    </vehicle>
    <vehicle id="changfeng50_3_26" type="veh_passenger" depart="0.650" departPos="random_free" arrivalPos="52.04" departLane="best" departSpeed="max">
        <route edges="240679753#1 -240679753#1 -240679753#0 -1073798761 -1073705826 -1073798764#2 -1073798764#0 -1073705824#1 -1073705824#0 225378733 1324597560 1329059764 1118486325#0 1118486325#1 1118486325#2 44418748#0 -240679755 -142638060#1 -142638060#0 -1167550619#2 -687003614#0 -687003615 1270411373#1 1270581695#0 1270581695#1 -93173515#1 1478728470#0 -1478728470#0 93173515#1 1270411370 1270411355 687003614#0 687003614#1 1167550617#0 142638060#1 142638060#2 -109691095 1330117305 1329059766 1231937683 372335514 177811577#0" />
    </vehicle>
    <vehicle id="changfeng50_3_27" type="veh_passenger" depart="0.675" departPos="random_free" arrivalPos="53.90" departLane="best" departSpeed="max">
        <route edges="1231937683 372335514 1073705827#0 1073705827#1 1073705827#2 1073705827#3 336885597 225372590#0 -225372592#3 -225372592#2 -225372592#1 -225372592#0 687003610#1 687003610#2 -1337777339 1073705821 1330117302#0 1330117302#1 103783038 1073705819 -97676932#1 -97676932#0 -1478728470#4 1478728471#0 -1478728471#0 1478728470#4 44418751 97676932#1 1324597546 109691114#0 109691114#1 1073705829#0 1073705829#1 -687003612#2 -687003612#1" />
    </vehicle>
    <vehicle id="changfeng50_3_28" type="veh_passenger" depart="0.700" departPos="random_free" arrivalPos="72.51" departLane="best" departSpeed="max">
        <route edges="687003610#0 687003610#1 687003610#2 -1337777339 1073705821 1330117302#0 1330117302#1 -177811577#1 -177811577#0 -1231937693 -1231937694 -1231937692 1329059764 1118486325#0 1118486325#1 1118486325#2 44418748#0 -240679755 -142638060#1 -142638060#0 -1167550619#2 687003614#1 1167550617#0 142638060#1 142638060#2 -109691095 1330117305 1326094892 1337777328#0 765716306" />
    </vehicle>
    <vehicle id="changfeng50_3_29" type="veh_passenger" depart="0.725" departPos="random_free" arrivalPos="14.31" departLane="best" departSpeed="max">
        <route edges="1337777328#0 1337777328#1 1073705822 -1073705827#3 -1073705827#2 -1073705827#1 -1073705827#0 -372335514 1231722480 1118486325#0 1118486325#1 1118486325#2 44418748#0 -240679755 -142638060#1 142638060#1 142638060#2 -109691095 1330117305 1326094892 1337777328#0 1337777328#1 958876930 -1073705824#0" />
    </vehicle>
    <vehicle id="changfeng50_3_30" type="veh_passenger" depart="0.750" departPos="random_free" arrivalPos="19.73" departLane="best" departSpeed="max">
        <route edges="489493508#0 489493508#1 489493508#2 489493509 -1073705827#0 -372335514 1118486328#0 1118486328#1 1073705819 -97676932#1 -97676932#0 -1478728470#4 1478728470#4 44418751 97676932#1 -97676932#1 -97676932#0 -1478728470#4 -1478728470#3 -1478728470#2 -1478728470#1 -1478728470#0 93173515#1 1270411370 1270411355 687003614#0 687003614#1 1167550617#0 177811579#0 177811579#1 177811579#2 -225277345#1 -225277351#0 225277348" />
    </vehicle>
    <vehicle id="changfeng50_3_31" type="veh_passenger" depart="0.775" departPos="random_free" arrivalPos="0.07" departLane="best" departSpeed="max">
        <route edges="142638060#2 -240679755 -142638060#1 -142638060#0 -1167550619#2 -687003614#0 -687003615 1270411373#1 1270581695#0 1270581695#1 -93173515#1 93173515#1 1270411370 1270411355 687003614#0 687003614#1 1167550617#0 142638060#1 142638060#2 -109691095 1330117305 1329059766 1231937683 1118486328#0 1118486328#1 109691114#0 109691114#1 1073705829#0 1073705829#1 687003610#0 687003610#1 687003610#2 -1337777339 1073705821 1330117302#0 1330117302#1 103783038 1073705819 1324597558 1092087672#0 103783034#1" />
    </vehicle>
    <vehicle id="changfeng50_3_32" type="veh_passenger" depart="0.800" departPos="random_free" arrivalPos="117.29" departLane="best" departSpeed="max">
        <route edges="-1478728471#5 1478728472 -1478728470#1 -1478728470#0 93173515#1 1270411370 1270411355 687003614#0 687003614#1 1167550617#0 142638060#1 142638060#2 -109691095 1330117305 1326094892 1337777328#0 1337777328#1 958876930 -1073705824#0 225378733 1073705822 336885597 225372590#0 225372590#1 -225372591 -687003612#0 -1073705822 1324597560 1329059764 1118486325#0 1118486325#1 1118486325#2 44418748#0 -240679755 -142638060#1 -142638060#0 -1167550619#2 -687003614#0 -687003615 1270411373#1 1270581695#0 1270581695#1" />
    </vehicle>
    <vehicle id="changfeng50_3_33" type="veh_passenger" depart="0.825" departPos="random_free" arrivalPos="13.79" departLane="best" departSpeed="max">
        <route edges="1073705830 1118486327#0 1118486327#1 1231722480 1118486325#0 1118486325#1 225277348 225277345#1 -225277345#1 -225277351#0 1118486325#2 44418748#0 -240679755 -142638060#1 -142638060#0 -1167550619#2 -687003614#0 -687003615 1270411373#1 1270581695#0 1270581695#1 -93173515#1 1478728470#0 1478728470#1 1478728470#2 -1478728470#2 -1478728470#1 -1478728470#0 93173515#1 1270411370 1270411355 687003614#0 687003614#1 1167550617#0 142638060#1 142638060#2 -109691095 -1330117304#1 -1324597544 1324597544" />
    </vehicle>
    <vehicle id="changfeng50_3_34" type="veh_passenger" depart="0.850" departPos="random_free" arrivalPos="86.37" departLane="best" departSpeed="max">
        <route edges="-225277351#0 1118486325#2 1330117305 1329059766 1231937683 1118486328#0 1118486328#1 1073705819 -97676932#1 -97676932#0 -1478728470#4 1478728471#0 -1478728471#0 1478728470#4 44418751 97676932#1 1324597546 109691114#0 109691114#1 1073705829#0 1073705829#1 687003610#0 225372592#0 225372592#1 -225372590#2 -225372590#1 -225372590#0 -336885597 -1073705827#3 -1073705827#2 -1073705827#1 -1073705827#0 -372335514 1231722480 1118486325#0 1118486325#1 1118486325#2 44418748#0 -240679755 -142638060#1 -142638060#0 -1167550618#2" />
    </vehicle>
    <vehicle id="changfeng50_3_35" type="veh_passenger" depart="0.875" departPos="random_free" arrivalPos="60.99" departLane="best" departSpeed="max">
        <route edges="1073798764#2 1073705826 1073798761 240679753#0 240679753#1 1324597544 1330117304#0 1330117305 1329059766 1231937683 1118486328#0 1118486328#1 1073705819 -97676932#1 -97676932#0 -1478728470#4 1478728471#0 -1478728471#0 1478728470#4 44418751 97676932#1 1324597546 109691114#0 109691114#1 1073705829#0 1073705829#1 -687003612#2 -687003612#1 225372591 -225372590#1 -225372590#0 -336885597 -1073705827#3 -1073705827#2 -1073705827#1 -1073705827#0 -372335514 1231722480 1118486325#0 1118486325#1 225277348 225277345#1 -177811579#2" />
    </vehicle>
    <vehicle id="changfeng50_3_36" type="veh_passenger" depart="0.900" departPos="random_free" arrivalPos="81.78" departLane="best" departSpeed="max">
        <route edges="1073705827#3 687003612#0 687003612#1 687003612#2 1330117302#0 1330117302#1 103783038 1073705819 1324597558 1092087672#0 1231722482 -58654498#1 141180079#0 141180079#1 -97676931 1073705832#0 -1073705832#0 97676931 -141180079#1 -141180079#0 58654498#1 1118804255 1073705831 1324597546 1118486327#0 1118486327#1 1231722480 1118486325#0 1326094892 1326094893 1231937692 1231937694 1231937693 -1231937693 -1231937694 -1231937692 -1326094893 -1073705828#1 1073705828#1" />
    </vehicle>
    <vehicle id="changfeng50_3_37" type="veh_passenger" depart="0.925" departPos="random_free" arrivalPos="105.12" departLane="best" departSpeed="max">
        <route edges="-1478728472 -1478728471#4 1478728473 1478728470#3 1478728470#4 44418751 97676932#1 -97676932#1 -97676932#0 -1478728470#4 -1478728470#3 -1478728470#2 -1478728470#1 -1478728470#0 93173515#1 1270411370 1270411355 687003614#0 687003614#1 1167550616#0 687003613#1 687003613#2 -687003613#2 -687003613#1 -687003613#0 1167550617#0 142638060#1 142638060#2 -109691095 1330117305 1329059766 1231937683 1118486328#0 1118486328#1 109691114#0 109691114#1 -177811577#1 -177811577#0" />
    </vehicle>
    <vehicle id="changfeng50_3_38" type="veh_passenger" depart="0.950" departPos="random_free" arrivalPos="7.22" departLane="best" departSpeed="max">
        <route edges="177811579#1 177811579#2 -225277345#1 -225277351#0 1118486325#2 1330117305 1329059766 1231937683 1118486328#0 1118486328#1 1073705819 1324597558 1092087672#0 1231722482 -58654498#1 141180079#0 141180079#1 -97676931 1073705832#0 1073705832#1 -62055779#2 -62055779#0 62055779#0 62055779#1 -1073705832#2 -1073705832#0 97676931 -141180079#1 -141180079#0 58654498#1 1118804255 1073705831 1324597546 109691114#0 109691114#1 -177811577#1 489493508#0 489493508#1 489493508#2 489493508#3 489493508#4 489493512 489493511#1 687003612#2 1330117302#0 1330117302#1 103783038 1073705819 -97676932#1 -97676932#0 -1478728470#4 1478728471#0" />
    </vehicle>
    <vehicle id="changfeng50_3_39" type="veh_passenger" depart="0.975" departPos="random_free" arrivalPos="1.76" departLane="best" departSpeed="max">
        <route edges="-225372592#3 -225372592#2 -225372590#2 -225372590#1 -225372590#0 -336885597 -1073705827#3 -1073705827#2 -1073705827#1 -1073705827#0 -372335514 1231722480 1118486325#0 1118486325#1 1118486325#2 44418748#0 -240679755 -142638060#1 -142638060#0 -1167550619#2 -687003614#0 -687003615 1270411373#1 1270581695#0 1270581695#1 -93173515#1 93173515#1 1270411370 1270411355 687003614#0 687003614#1 1167550617#0 142638060#1 142638060#2 -109691095 1330117305 1329059766 1231937683 372335514 1073705827#0 1073705827#1 1073705827#2 1073705827#3 336885597 225372590#0 -225372592#3 -225372592#2 -225372592#1 -225372592#0 225372592#0" />
    </vehicle>
    <vehicle id="changfeng50_3_40" type="veh_passenger" depart="1.000" departPos="random_free" arrivalPos="513.60" departLane="best" departSpeed="max">
        <route edges="240679753#1 1324597544 1330117304#0 1330117300 1238502000 1273359364 1118486326#0 1330117305 1329059766 1231937683 1118486328#0 1118486328#1 1073705819 157810675#0 157810675#1 157810675#2 1073705829#0 1073705829#1 -687003612#2 -687003612#1 -687003612#0 -1073705822 1073705822" />
    </vehicle>
    <vehicle id="changfeng50_3_41" type="veh_passenger" depart="1.025" departPos="random_free" arrivalPos="43.31" departLane="best" departSpeed="max">
        <route edges="177811577#0 177811577#1 103783038 1073705819 1324597558 1092087672#0 1231722482 -58654498#1 58654498#1 1118804255 1073705831 1324597546 1118486327#0 1118486327#1 1231722480 1118486325#0 1118486325#1 1118486325#2 44418748#0 -240679755 -142638060#1 -142638060#0 1167550617#0 142638060#1 142638060#2 -109691095 1330117305 1329059766 1231937683 1118486328#0 1118486328#1 109691114#0 109691114#1 1073705829#0" />
    </vehicle>
    <vehicle id="changfeng50_3_42" type="veh_passenger" depart="1.050" departPos="random_free" arrivalPos="26.91" departLane="best" departSpeed="max">
        <route edges="103783034#1 1027408000#1 1073705831 1324597546 1118486327#0 1118486327#1 1231722480 1118486325#0 1118486325#1 1118486325#2 44418748#0 -240679755 -142638060#1 -142638060#0 -1167550619#2 -687003614#0 1330557846 1270411371#0 336728144 1270581695#1 1270411370 1270411355 687003614#0 687003614#1 1167550617#0 142638060#1 142638060#2 -109691095 1330117305 1329059766 1231937683 1118486328#0 1118486328#1 109691114#0 109691114#1 1073705829#0 1073705829#1 1330117302#0 1330117302#1 103783038 1073705819 1324597558 1092087672#0 1231722482 -58654498#1 141180079#0 141180079#1 -97676931 1073705832#0 71793600" />
    </vehicle>
    <vehicle id="changfeng50_3_43" type="veh_passenger" depart="1.075" departPos="random_free" arrivalPos="125.06" departLane="best" departSpeed="max">
        <route edges="-240679753#0 -1073798761 -1073705826 -1073798764#2 -1073798764#0 -1073705824#1 -1073705824#0 225378733 1324597560 1329059764 1231937683 1118486328#0 1118486328#1 1073705819 -97676932#1 -97676932#0 -1478728470#4 1478728471#0 -1478728475 -1478728471#2 -1478728471#1 -1478728471#0 -1478728470#3 -1478728470#2 1478728470#2 1478728470#3 1478728470#4 44418751 97676932#1 1324597546 109691114#0 109691114#1 1073705829#0 1073705829#1 -687003612#2 -687003612#1 -687003612#0 -1073705827#3 -1073705827#2 -1073705827#1" />
    </vehicle>
    <vehicle id="changfeng50_3_44" type="veh_passenger" depart="1.100" departPos="random_free" arrivalPos="62.10" departLane="best" departSpeed="max">
        <route edges="1073705826 1073798761 240679753#0 240679753#1 813902631#0 813902631#2 1073705822 687003612#0 687003612#1 687003612#2 1330117302#0 1330117302#1 103783038 1118486327#0 1118486327#1 1231722480 1118486325#0 1118486325#1 1118486325#2 44418748#0 -240679755 -142638060#1 -142638060#0 -1167550619#2 -687003614#0 -687003615 1270411373#1 1270581695#0 1270581695#1 -93173515#1 1478728470#0 -1478728471#5" />
    </vehicle>
    <vehicle id="changfeng50_3_45" type="veh_passenger" depart="1.125" departPos="random_free" arrivalPos="456.51" departLane="best" departSpeed="max">
        <route edges="225277348 -225277351#0 1118486325#2 1330117305 1329059766 1231937683 1118486328#0 1118486328#1 1073705819 1324597558 1027408000#0 1027408000#1 1073705831 1324597546 109691114#0 109691114#1 -177811577#1 489493508#0 489493508#1 489493508#2 489493509 -1073705827#0 -372335514 1231722480 1118486325#0 1118486325#1 1118486325#2 44418748#0" />
    </vehicle>
    <vehicle id="changfeng50_3_46" type="veh_passenger" depart="1.150" departPos="random_free" arrivalPos="81.56" departLane="best" departSpeed="max">
        <route edges="225372592#2 225372592#3 -225372590#0 -336885597 -1073705822 1324597560 -1326094893 1337777328#0 765716306 -1073705828#0 1330117304#0 44418748#0 -240679755 -142638060#1 -142638060#0 -1167550619#2 -687003614#0 -687003615 1270411373#1 1270581695#0 1270581695#1 1270411370 1270411355 687003614#0 225279017#0" />
    </vehicle>
    <vehicle id="changfeng50_3_47" type="veh_passenger" depart="1.175" departPos="random_free" arrivalPos="124.63" departLane="best" departSpeed="max">