<?xml version='1.0' encoding='UTF-8'?>
<routes xmlns:xsi="http://www.w3.org/2001/XMLSchema-instance" xsi:noNamespaceSchemaLocation="http://sumo.dlr.de/xsd/routes_file.xsd">
    <vType id="veh_passenger" vClass="passenger" accel="2.6" decel="4.5" sigma="0.5" length="4.5" minGap="2.5" maxSpeed="15.555556" speedFactor="normc(1.00,0.10,0.70,1.30)" color="1,1,0" />
    <vehicle id="changfeng45_1_0" type="veh_passenger" depart="0.000" departPos="random_free" arrivalPos="0.04" departLane="best" departSpeed="max">
        <route edges="1330117300 1238502000 1273359364 1118486326#0 44418748#0 -240679755 -142638060#1 -142638060#0 -1167550619#2 -687003614#0 -687003615 1270411373#1 1270581695#0 1270581695#1 -93173515#1 1478728470#0 1478728470#1 -1478728470#1 -1478728470#0 93173515#1 1270411370 1270411355 687003614#0 687003614#1 1167550617#0 142638060#1 142638060#2 -109691095 1330117305 1326094892 1337777328#0 1337777328#1 958876930 1073705824#1 1073798764#0 1073798764#2 1073705826 1073798761 240679753#0 240679753#1 1324597544 1330117304#0 1330117305 1329059766 1231937683 1118486328#0 1118486328#1 1073705819 1324597558 1092087672#0 1231722482 1118804255" />
    </vehicle>
    <vehicle id="changfeng45_1_1" type="veh_passenger" depart="0.028" departPos="random_free" arrivalPos="116.33" departLane="best" departSpeed="max">
        <route edges="-489493511#1 -489493511#0 1073705827#3 -1073705822 958876930 -1073705824#0 -336885594 336885594 1073705824#0 -1073705824#0 225378733 1073705822 336885597 225372590#0 225372590#1 -225372591 687003612#1 687003612#2 1330117302#0 1330117302#1 1073705829#0 1073705829#1" />
    </vehicle>
    <vehicle id="changfeng45_1_2" type="veh_passenger" depart="0.056" departPos="random_free" arrivalPos="10.11" departLane="best" departSpeed="max">
        <route edges="336885597 225372590#0 -225372590#0 -336885597 -1073705827#3 -1073705827#2 -1073705827#1 -1073705827#0 -372335514 1231722480 1118486325#0 1118486325#1 1118486325#2 44418748#0 -240679755 -142638060#1 177811579#0 177811579#1 177811579#2 -225277345#1 -225277351#0 1118486325#2 1330117305 1329059766 1231937683 372335514 -1231937693 -1231937694 -1231937692 -1326094893 -1073705828#1 -1073705828#0 -1324597544 -240679753#1 -240679753#0 -1073798761 -1073705826 -1073798764#2" />
    </vehicle>
    <vehicle id="changfeng45_1_3" type="veh_passenger" depart="0.083" departPos="random_free" arrivalPos="232.08" departLane="best" departSpeed="max">
        <route edges="1270581695#0 1270581695#1 1270411370 1270411355 687003614#0 687003614#1 1167550617#0 142638060#1 142638060#2 -109691095 1330117305 1329059766 1231937683 1118486328#0 1118486328#1 109691114#0 109691114#1 1073705829#0 1073705829#1 -687003612#2 687003612#2 687003610#0 687003610#1 687003610#2 -1337777339 1073705821 1330117302#0 1330117302#1 103783038 1073705819 1324597558 1027408000#0 1027408000#1 1073705831" />
    </vehicle>
    <vehicle id="changfeng45_1_4" type="veh_passenger" depart="0.111" departPos="random_free" arrivalPos="8.45" departLane="best" departSpeed="max">
        <route edges="-225372592#3 -225372592#2 -225372590#2 -225372591 -687003612#0 -1073705822 -813902631#2 -813902631#0 -240679753#1 -240679753#0 -1073798761 -1073705826 -1073798764#2 -1073798764#0 -1073705824#1 -1073705824#0 225378733 1324597560 1329059764 1118486325#0 1118486325#1 1118486325#2 44418748#0 -240679755 -142638060#1 -142638060#0 -1167550619#2 -687003614#0 1330557846 1270411371#0 336728144 1270581695#1 1270411370 1270411355 687003614#0 687003614#1 1167550617#0 142638060#1 142638060#2 -109691095 -1330117304#1 -1324597544 -240679753#1 -240679753#0 -1073798761 -1073705826 -1073798764#2 -1073798764#0" />
    </vehicle>
    <vehicle id="changfeng45_1_5" type="veh_passenger" depart="0.139" departPos="random_free" arrivalPos="9.70" departLane="best" departSpeed="max">
        <route edges="-62055779#0 62055779#0 62055779#1 -1073705832#2 -1073705832#0 97676931 -141180079#1 -141180079#0 58654498#1 1118804255 1073705831 -97676932#1 -97676932#0 -1478728470#4 -1478728470#3 -1478728470#2 -1478728472 -1478728471#4 1478728473 1478728470#3 1478728470#4 44418751 97676932#1 1324597546 1118486327#0 1118486327#1 1231722480 1118486325#0 1326094892 1326094893 -1326094893 1337777328#0 1337777328#1 958876930 -1073705824#0 -336885594 336885594 1073705824#0" />
    </vehicle>
    <vehicle id="changfeng45_1_6" type="veh_passenger" depart="0.167" departPos="random_free" arrivalPos="13.10" departLane="best" departSpeed="max">
        <route edges="225279017#1 1515352060 -687003613#2 -687003613#1 -687003613#0 1167550617#0 142638060#1 142638060#2 -109691095 1330117305 1329059766 1231937683 372335514 1073705827#0 1073705827#1 1073705827#2 489493511#0 489493511#1 687003612#2 1330117302#0 1330117302#1 1073705829#0 1073705829#1 1330117302#0 1330117302#1 103783038 1073705819 -97676932#1 -97676932#0 -1478728470#4 -1478728470#3 -1478728470#2 -1478728470#1" />
    </vehicle>
    <vehicle id="changfeng45_1_7" type="veh_passenger" depart="0.194" departPos="random_free" arrivalPos="127.63" departLane="best" departSpeed="max">
        <route edges="157810675#0 157810675#1 157810675#2 1073705829#0 1073705829#1 -687003612#2 -687003612#1 -687003612#0 -1073705822 -813902631#2 -813902631#0 1324597544 1330117304#0 44418748#0 -109691095 44418748#0 -240679755 -142638060#1 177811579#0" />
    </vehicle>
    <vehicle id="changfeng45_1_8" type="veh_passenger" depart="0.222" departPos="random_free" arrivalPos="0.12" departLane="best" departSpeed="max">
        <route edges="336728142 1270411371#0 336728144 1270581695#1 1270411370 1270411355 687003614#0 687003614#1 1167550616#0 687003613#1 687003613#2 -687003613#2 -687003613#1 1515352061 225279017#1 1515352060 -687003613#2 -687003613#1 -687003613#0 1167550617#0 142638060#1 142638060#2 -109691095 1330117305 1329059766 1231937683 1118486328#0 1118486328#1 1073705819 1324597558 1092087672#0 1231722482 1118804255" />
    </vehicle>
    <vehicle id="changfeng45_1_9" type="veh_passenger" depart="0.250" departPos="random_free" arrivalPos="9.83" departLane="best" departSpeed="max">
        <route edges="489493508#5 -1073705827#1 -1073705827#0 177811577#0 177811577#1 1073705829#0 1073705829#1 -687003612#2 -687003612#1 -687003612#0 -1073705822 1073705822 -1073705827#3 -1073705827#2 -1073705827#1 -1073705827#0 -372335514 -1231722479#1 -1231722479#0 1231722479#0 1231722479#1" />
    </vehicle>
    <vehicle id="changfeng45_1_10" type="veh_passenger" depart="0.278" departPos="random_free" arrivalPos="59.26" departLane="best" departSpeed="max">
        <route edges="813902631#0 813902631#2 1324597560 1329059764 1118486325#0 1118486325#1 1118486325#2 44418748#0 -240679755 -142638060#1 -142638060#0 -1167550619#2 687003614#1 1167550617#0 142638060#1 142638060#2 -109691095 1330117305 1329059766 1231937683 372335514 1073705827#0 1073705827#1 1073705827#2 1073705827#3 687003612#0 225372591 -225372590#1 -225372590#0 -336885597 -1073705827#3 -1073705827#2 -1073705827#1 -1073705827#0 -372335514 1231722480 1118486325#0 1118486325#1 1118486325#2 44418748#0 -240679755 -142638060#1 -142638060#0 1167550616#0 687003613#1 687003613#2" />
    </vehicle>
    <vehicle id="changfeng45_1_11" type="veh_passenger" depart="0.306" departPos="random_free" arrivalPos="28.97" departLane="best" departSpeed="max">
        <route edges="68992985#0 68992985#1 68992985#2 -1275296713 -109691095 1330117305 1329059766 1231937683 1118486328#0 1118486328#1 1073705819 -97676932#1 -97676932#0 -1478728470#4 1478728470#4 44418751 97676932#1 1324597546 1118486327#0 1118486327#1 1231722480 1118486325#0 1326094892 1337777328#0 1337777328#1 958876930 1073705824#1 1073798764#0 1073798764#2 1073705826 1073798761 240679753#0 240679753#1 1324597544 1330117304#0 1330117305 1329059766 1231937683 -1231722479#1" />
    </vehicle>
    <vehicle id="changfeng45_1_12" type="veh_passenger" depart="0.333" departPos="random_free" arrivalPos="88.01" departLane="best" departSpeed="max">
        <route edges="1167550617#0 142638060#1 142638060#2 -109691095 -1330117304#1 -1324597544 813902631#0 813902631#2 1073705822 -1073705827#3 -1073705827#2 1073705827#2 1073705827#3 -1073705822" />
    </vehicle>
    <vehicle id="changfeng45_1_13" type="veh_passenger" depart="0.361" departPos="random_free" arrivalPos="13.26" departLane="best" departSpeed="max">
        <route edges="-240679753#1 -240679753#0 -1073798761 -1073705826 -1073798764#2 -1073798764#0 -1073705824#1 -1073705824#0 225378733 1324597560 1231937692 1231937694 1231937693 -1231937693 -1231937694 -1231937692 -1326094893 1337777328#0 1337777328#1 1073705822 687003612#0 687003612#1 687003612#2 1330117302#0 1330117302#1 103783038 1073705819 -97676932#1 -97676932#0 -1478728470#4 1478728471#0 -1478728475" />
    </vehicle>
    <vehicle id="changfeng45_1_14" type="veh_passenger" depart="0.389" departPos="random_free" arrivalPos="20.10" departLane="best" departSpeed="max">
        <route edges="103783036 1073705831 1324597546 109691114#0 109691114#1 -177811577#1 -177811577#0 -1231937693 -1231937694 -1231937692 1329059764 1118486325#0 1118486325#1 1118486325#2 44418748#0 -240679755 -142638060#1 -142638060#0 -1167550619#2 -687003614#0 1330557846 1270411371#0 336728144 1270581695#1 1270411370 1275296704#0 1275296704#1 -1275296704#1 -1275296704#0" />
    </vehicle>
    <vehicle id="changfeng45_1_15" type="veh_passenger" depart="0.417" departPos="random_free" arrivalPos="16.73" departLane="best" departSpeed="max">
        <route edges="-225372592#2 -225372590#2 -225372590#1 -225372590#0 -336885597 336885597 225372590#0 -225372590#0 -336885597 -1073705822 -813902631#2 -813902631#0 813902631#0 813902631#2 1073705822 -1073705827#3 -1073705827#2 -489493508#5 -489493508#4 -489493508#3 -489493508#2" />
    </vehicle>
    <vehicle id="changfeng45_1_16" type="veh_passenger" depart="0.444" departPos="random_free" arrivalPos="3.09" departLane="best" departSpeed="max">
        <route edges="-687003612#1 -687003612#0 -1073705822 1324597560 1329059764 1118486325#0 1118486325#1 1118486325#2 44418748#0 -240679755 -142638060#1 -142638060#0 -1167550619#2 -687003614#0 1330557846 1270411371#0 336728144 1270581695#1 1270411370 1270411355 687003614#0 687003614#1 1167550617#0 142638060#1 142638060#2 -109691095 1330117305 1329059766 1231937683 1118486328#0 1118486328#1 109691114#0 109691114#1 1073705829#0 1073705829#1 687003610#0 687003610#1 687003610#2 -1337777339 1073705821 1330117302#0 1330117302#1 103783038 1073705819 -97676932#1 -97676932#0 -1478728470#4 1478728471#0" />
    </vehicle>
    <vehicle id="changfeng45_1_17" type="veh_passenger" depart="0.472" departPos="random_free" arrivalPos="16.64" departLane="best" departSpeed="max">
        <route edges="1270411372 1330557846 1270411371#0 1270411371#1 -1270411370 -93173515#1 93173515#1 1270411370 1270411355 687003614#0 687003614#1 1167550617#0 142638060#1 142638060#2 -109691095 1330117305 1329059766 1231937683 1118486328#0 1118486328#1 1073705819 1324597558 1092087672#0 1231722482 1118804255 1073705831 1324597546 1118486327#0 1118486327#1 1231722480 1118486325#0 1118486325#1 1118486325#2 44418748#0 -240679755 -142638060#1 -142638060#0 -1167550619#2 -687003614#0 -687003615 1270411373#1 1270581695#0 1270581695#1 -93173515#1" />
    </vehicle>
    <vehicle id="changfeng45_1_18" type="veh_passenger" depart="0.500" departPos="random_free" arrivalPos="123.98" departLane="best" departSpeed="max">
        <route edges="687003610#2 -1337777339 1073705821 1330117302#0 1330117302#1 103783038 1118486327#0 1118486327#1 -1231722479#1 -1231722479#0 1231722479#0 1231722479#1 1231722480 1118486325#0 1118486325#1 1118486325#2 -1330117304#1 -1324597544 -240679753#1 -240679753#0 -1073798761 -1073705826 -1073798764#2 -1073798764#0 -1073705824#1 -1073705824#0 225378733 1324597560 1329059764 1231937683 1118486328#0 1118486328#1 1073705819 157810675#0" />
    </vehicle>
    <vehicle id="changfeng45_1_19" type="veh_passenger" depart="0.528" departPos="random_free" arrivalPos="51.75" departLane="best" departSpeed="max">
        <route edges="489493508#2 489493509 -1073705827#0 -372335514 1118486328#0 1118486328#1 1073705819 157810675#0 157810675#1 157810675#2 -177811577#1 -177811577#0 -1231937693 -1231937694 -1231937692 -1326094893 1337777328#0 1337777328#1 1073705822 336885597 225372590#0 -225372592#3 -225372592#2 -225372592#1" />
    </vehicle>
    <vehicle id="changfeng45_1_20" type="veh_passenger" depart="0.556" departPos="random_free" arrivalPos="288.31" departLane="best" departSpeed="max">
        <route edges="336728144 1270581695#1 1270411370 1270411355 687003614#0 687003614#1 1167550617#0 142638060#1 142638060#2 -109691095 1330117305 1329059766 1231937683 372335514 177811577#0 177811577#1 1073705829#0 1073705829#1 -687003612#2 -687003612#1 687003612#1 -687003612#1 -687003612#0 -1073705822 958876930 1073705824#1" />
    </vehicle>
    <vehicle id="changfeng45_1_21" type="veh_passenger" depart="0.583" departPos="random_free" arrivalPos="99.90" departLane="best" departSpeed="max">
        <route edges="1337777339 -1337777339 1073705821 687003610#0 225372592#0 225372592#1 -225372592#1 -225372592#0 687003610#1 687003610#2 -1337777339 1073705821 -687003612#2 -687003612#1 -687003612#0 -1073705822 -813902631#2 -813902631#0 -240679753#1 -240679753#0 -1073798761 -1073705826 -1073798764#2 -1073798764#0 -1073705824#1 -1073705824#0 225378733 -813902631#2 -813902631#0 1324597544" />
    </vehicle>
    <vehicle id="changfeng45_1_22" type="veh_passenger" depart="0.611" departPos="random_free" arrivalPos="22.10" departLane="best" departSpeed="max">
        <route edges="-1478728473 -1478728471#3 -1478728471#2 -1478728471#1 -1478728471#0 1478728470#4 44418751 97676932#1 1324597546 109691114#0 109691114#1 1073705829#0 1073705829#1 687003610#0 225372592#0 225372592#1 -225372590#2 -225372590#1 -225372592#3 -225372592#2 -225372590#2 -225372590#1 -225372590#0 -336885597 -1073705827#3 -1073705827#2 -1073705827#1 -1073705827#0 -372335514 1231722480 1118486325#0 1118486325#1 1118486325#2 44418748#0 -240679755 -142638060#1 -142638060#0 -1167550619#2 -687003614#0 -687003615 1270411373#1 1270581695#0 1270581695#1" />
    </vehicle>
    <vehicle id="changfeng45_1_23" type="veh_passenger" depart="0.639" departPos="random_free" arrivalPos="52.29" departLane="best" departSpeed="max">
        <route edges="-1326094893 1326094893 1329059764 1231937683 1118486328#0 1118486328#1 1073705819 1324597558 1092087672#0 1231722482 -58654498#1 141180079#0 141180079#1 -141180079#1 -141180079#0 58654498#1 1118804255 1073705831 -97676932#1 -97676932#0 -1478728470#4 1478728471#0 1478728471#1 1478728471#2 1478728471#3 1478728471#4 1478728471#5 -1478728470#0 93173515#1 1270411370 1270411355 687003614#0 687003614#1 1167550616#0 687003613#1 687003613#2 -687003613#2" />
    </vehicle>
    <vehicle id="changfeng45_1_24" type="veh_passenger" depart="0.667" departPos="random_free" arrivalPos="11.58" departLane="best" departSpeed="max">
        <route edges="1478728473 1478728470#3 1478728470#4 44418751 97676932#1 1324597546 1118486327#0 1118486327#1 1118486328#0 1118486328#1 109691114#0 109691114#1 1073705829#0 1073705829#1 -687003612#2 -687003612#1 -687003612#0 -1073705827#3 -1073705827#2 -1073705827#1 1073705827#1 1073705827#2 1073705827#3 687003612#0 225372591" />
    </vehicle>
    <vehicle id="changfeng45_1_25" type="veh_passenger" depart="0.694" departPos="random_free" arrivalPos="67.04" departLane="best" departSpeed="max">
        <route edges="1073705827#1 1073705827#2 1073705827#3 687003612#0 687003612#1 687003612#2 1330117302#0 1330117302#1 103783038 1118486327#0 1118486327#1 1118486328#0 1118486328#1 1073705819 -97676932#1 -97676932#0 -1478728470#4 -1478728470#3 -1478728470#2 -1478728472 -1478728471#4 1478728473 1478728470#3 1478728470#4 44418751 97676932#1 1324597546 1073705819" />
    </vehicle>
    <vehicle id="changfeng45_1_26" type="veh_passenger" depart="0.722" departPos="random_free" arrivalPos="64.67" departLane="best" departSpeed="max">
        <route edges="-157810675#0 1324597558 1092087672#0 1231722482 -58654498#1 141180079#0 141180079#1 -97676931 1073705832#0 1073705832#1 -1073705832#2 -1073705832#0 97676931 -141180079#1 -141180079#0 58654498#1 1118804255 1073705831 1324597546 109691114#0 109691114#1 -177811577#1 489493508#0 489493508#1 489493508#2 -489493508#2 -489493508#1 -489493508#0 -177811577#0 -372335514 1231722480 1118486325#0 1118486325#1 1118486325#2 44418748#0 -240679755 -142638060#1 -142638060#0 -1167550619#2 225279017#0 -225279017#0" />
    </vehicle>
    <vehicle id="changfeng45_1_27" type="veh_passenger" depart="0.750" departPos="random_free" arrivalPos="97.21" departLane="best" departSpeed="max">
        <route edges="1515352060 -687003613#2 -687003613#1 -687003613#0 1167550617#0 142638060#1 142638060#2 -109691095 -1330117304#1 -1324597544 -240679753#1 -240679753#0 -1073798761 -1073705826 -1073798764#2 -1073798764#0 -1073705824#1 -1073705824#0 225378733 1073705822 687003612#0 -687003612#0 -1073705822 1324597560 1329059764 1118486325#0 1118486325#1 1118486325#2 44418748#0 -240679755 -142638060#1 -142638060#0 -1167550619#2 -687003614#0 -687003615 1270411373#1 1270581695#0 1270581695#1 1270411370 1275296704#0 1275296704#1 -1275296704#1 -1275296704#0" />
    </vehicle>
    <vehicle id="changfeng45_1_28" type="veh_passenger" depart="0.778" departPos="random_free" arrivalPos="41.44" departLane="best" departSpeed="max">
        <route edges="157810675#2 103783038 1118486327#0 1118486327#1 372335514 177811577#0 177811577#1 103783038 1073705819 1324597558 1092087672#0 1231722482 -58654498#1 141180079#0 141180079#1 -97676931 1073705832#0 71793600" />
    </vehicle>
    <vehicle id="changfeng45_1_29" type="veh_passenger" depart="0.806" departPos="random_free" arrivalPos="62.38" departLane="best" departSpeed="max">
        <route edges="1324597544 1330117304#0 44418748#0 -240679755 -142638060#1 -142638060#0 -1167550619#2 -687003614#0 -687003615 1270411373#1 1270581695#0 1270581695#1 -93173515#1 1478728470#0 1478728470#1 1478728470#2 -1478728473 -1478728471#3 1478728475 -1478728471#0 1478728470#4 44418751 97676932#1 1324597558 1092087672#0 1231722482 -58654498#1 141180079#0 141180079#1 -97676931 1073705832#0 -1073705832#0 97676931 -141180079#1 -141180079#0 58654498#1 1118804255 1073705831 1324597546 1118486327#0 1118486327#1" />
    </vehicle>
    <vehicle id="changfeng45_1_30" type="veh_passenger" depart="0.833" departPos="random_free" arrivalPos="2.02" departLane="best" departSpeed="max">
        <route edges="1329059764 1118486325#0 1326094892 -1073705828#1 1073705828#1 1326094893 1329059764 1118486325#0 1118486325#1 1118486325#2 44418748#0 -240679755 -142638060#1 -142638060#0 -1167550619#2 -687003614#0 -687003615 687003615 687003614#0 687003614#1 1167550617#0 142638060#1 142638060#2 -109691095 1330117305 1329059766 1231937683 1118486328#0 1118486328#1 109691114#0 109691114#1 1073705829#0 1073705829#1 687003610#0 687003610#1 687003610#2 -1337777339 -1163003870#1" />
    </vehicle>
    <vehicle id="changfeng45_1_31" type="veh_passenger" depart="0.861" departPos="random_free" arrivalPos="112.66" departLane="best" departSpeed="max">
        <route edges="-1073705822 1324597560 1329059764 1231937683 1118486328#0 1118486328#1 1073705819 1324597558 1092087672#0 1231722482 -58654498#1 141180079#0 141180079#1 -97676931 1073705832#0 1073705832#1 -62055779#2 -62055779#0 62055779#0 62055779#1 -1073705832#2 -1073705832#0 97676931 -141180079#1 -141180079#0 58654498#1 1118804255 1073705831 157810675#0 157810675#1 157810675#2 -157810675#2 -157810675#1 -157810675#0" />
    </vehicle>
    <vehicle id="changfeng45_1_32" type="veh_passenger" depart="0.889" departPos="random_free" arrivalPos="7.81" departLane="best" departSpeed="max">
        <route edges="-1478728471#5 1478728472 1478728470#2 1478728470#3 -1478728470#3 -1478728470#2 -1478728470#1 -1478728470#0 93173515#1 1270411370 1270411355 687003614#0 687003614#1 1167550617#0 142638060#1 142638060#2 -109691095 44418748#0 -109691095 1330117305 1329059766 1231937683 1118486328#0 1118486328#1 109691114#0 109691114#1 -177811577#1 -177811577#0" />
    </vehicle>
    <vehicle id="changfeng45_1_33" type="veh_passenger" depart="0.917" departPos="random_free" arrivalPos="27.79" departLane="best" departSpeed="max">
        <route edges="109691114#1 -177811577#1 -177811577#0 -1231937693 -1231937694 -1231937692 -1326094893 -1073705828#1 1073705828#1 1326094893 1329059764 1231937683 1118486328#0 1118486328#1 1073705819 -97676932#1 -97676932#0 -1478728470#4 1478728471#0 -1478728475 1478728475 -1478728471#0 1478728470#4 44418751 97676932#1 1324597546 109691114#0" />
    </vehicle>
    <vehicle id="changfeng45_1_34" type="veh_passenger" depart="0.944" departPos="random_free" arrivalPos="12.00" departLane="best" departSpeed="max">
        <route edges="687003613#2 -1515352060 -225279017#1 -225279017#0 -687003614#0 -687003615 1270411373#1 1270581695#0 1270581695#1 -93173515#1 1478728470#0 -1478728471#5 1478728472 1478728470#2 1478728470#3 1478728470#4 44418751 97676932#1 1324597546 109691114#0 109691114#1 1073705829#0 1073705829#1 -687003612#2 -489493511#1" />
    </vehicle>
    <vehicle id="changfeng45_1_35" type="veh_passenger" depart="0.972" departPos="random_free" arrivalPos="8.80" departLane="best" departSpeed="max">
        <route edges="-1270581690#2 -1073705832#2 -1073705832#0 97676931 -141180079#1 -141180079#0 58654498#1 1118804255 1073705831 1324597546 1118486327#0 1118486327#1 1231722480 1118486325#0 1118486325#1 1118486325#2 1330117300 1238502000 1273359364 1118486326#0 1330117305 1329059766 1231937683 1118486328#0 1118486328#1 109691114#0 109691114#1 1073705829#0 1073705829#1 -687003612#2 -489493511#1 489493511#1 687003612#2 1330117302#0 1330117302#1 103783038 1073705819 -97676932#1 -97676932#0 -1478728470#4 1478728470#4" />
    </vehicle>
    <vehicle id="changfeng45_1_36" type="veh_passenger" depart="1.000" departPos="random_free" arrivalPos="11.30" departLane="best" departSpeed="max">
        <route edges="-225372592#2 -225372592#1 -225372592#0 687003610#1 687003610#2 -1337777339 1073705821 1330117302#0 1330117302#1 1073705829#0 1073705829#1 -687003612#2 -687003612#1 -687003612#0 -1073705822 1324597560 -1326094893 1326094893 -1326094893 1337777328#0 1337777328#1 958876930 -1073705824#0" />
    </vehicle>
    <vehicle id="changfeng45_1_37" type="veh_passenger" depart="1.028" departPos="random_free" arrivalPos="11.90" departLane="best" departSpeed="max">
        <route edges="1073705825 813902631#0 813902631#2 1073705822 -1073705827#3 -1073705827#2 -489493508#5 -489493508#4 -489493508#3 -489493508#2 -489493508#1 -489493508#0 177811577#1 103783038 1073705819 -97676932#1 -97676932#0 -1478728470#4 -1478728470#3 1478728470#3 1478728470#4 44418751 97676932#1 1324597546 109691114#0 109691114#1 1073705829#0 1073705829#1 -687003612#2 -489493511#1 -489493512 -489493508#4" />
    </vehicle>
    <vehicle id="changfeng45_1_38" type="veh_passenger" depart="1.056" departPos="random_free" arrivalPos="28.68" departLane="best" departSpeed="max">
        <route edges="-489493508#4 -489493508#3 489493509 1073705827#1 1073705827#2 1073705827#3 336885597 225372590#0 225372590#1 -225372591 -687003612#0 -1073705822 1324597560 1329059764 1118486325#0 1118486325#1 1118486325#2 44418748#0 -240679755 -142638060#1 -142638060#0 -1167550619#2 687003614#1 -1167550619#2 -687003614#0 -687003615 1270411373#1 1270581695#0 1270581695#1 -93173515#1 1478728470#0 1478728470#1 1478728470#2 1478728470#3 1478728471#0 1478728471#1 1478728471#2" />
    </vehicle>
    <vehicle id="changfeng45_1_39" type="veh_passenger" depart="1.083" departPos="random_free" arrivalPos="0.09" departLane="best" departSpeed="max">
        <route edges="1270411355 687003614#0 687003614#1 1167550617#0 142638060#1 142638060#2 -109691095 1330117305 1329059766 1231937683 372335514 1073705827#0 -489493509 489493508#3 489493508#4 489493508#5 1073705827#2 1073705827#3 -1073705822 -813902631#2 -813902631#0 1324597544 1330117304#0 1330117305 1329059766 1231937683 1118486328#0 1118486328#1 1073705819 1324597558 1027408000#0 1027408000#1" />
    </vehicle>
    <vehicle id="changfeng45_1_40" type="veh_passenger" depart="1.111" departPos="random_free" arrivalPos="4.59" departLane="best" departSpeed="max">
        <route edges="44418748#0 -109691095 1330117300 1238502000 1273359364 1118486326#0 1330117305 1329059766 1231937683 1118486328#0 1118486328#1 1073705819 -97676932#1 -97676932#0 -1478728470#4 1478728470#4 44418751 97676932#1 1324597546 109691114#0 109691114#1 1073705829#0 1073705829#1 687003610#0 225372592#0 225372592#1 -225372592#1" />
    </vehicle>
    <vehicle id="changfeng45_1_41" type="veh_passenger" depart="1.139" departPos="random_free" arrivalPos="56.14" departLane="best" departSpeed="max">
        <route edges="-1231937692 1329059764 1231937683 1118486328#0 1118486328#1 1073705819 1324597558 1092087672#0 1231722482 -58654498#1 141180079#0 141180079#1 -97676931 1073705832#0 1073705832#1 -62055779#2 -62055779#0 62055779#0 62055779#1 -1073705832#2 -1073705832#0 97676931 -141180079#1 -141180079#0 58654498#1 1118804255 1073705831 1324597546 1118486327#0 1118486327#1 1231722480 1118486325#0 1118486325#1 1118486325#2 44418748#0 -240679755 -142638060#1 -142638060#0 -1167550619#2 225279017#0 -1515352061 -687003613#0 1167550617#0 142638060#1 142638060#2 -109691095 1330117305 1329059766 1231937683 1118486328#0 1118486328#1 1073705819 1324597558 1092087672#0 1231722482 -58654498#1 141180079#0 141180079#1 -97676931 1073705832#0 1073705832#1 1270581690#1" />
    </vehicle>
    <vehicle id="changfeng45_1_42" type="veh_passenger" depart="1.167" departPos="random_free" arrivalPos="2.68" departLane="best" departSpeed="max">
        <route edges="1231937683 1231722480 1118486325#0 1118486325#1 1118486325#2 -1330117304#1 -1324597544 -240679753#1 -240679753#0 -1073798761 -1073705826 -1073798764#2 -1073798764#0 -1073705824#1 -1073705824#0 225378733 1073705822 687003612#0 687003612#1 687003612#2 -687003612#2 687003612#2 1330117302#0 1330117302#1 103783038 1073705819 1324597558 1092087672#0 1231722482 -58654498#1 141180079#0 141180079#1 141180079#2" />
    </vehicle>
    <vehicle id="changfeng45_1_43" type="veh_passenger" depart="1.194" departPos="random_free" arrivalPos="128.28" departLane="best" departSpeed="max">
        <route edges="-1073798764#2 -1073798764#0 -1073705824#1 1073705824#1 1073798764#0 1073798764#2 1073705826 1073798761 240679753#0 240679753#1 813902631#0 813902631#2 1073705822 687003612#0 -687003612#0 -1073705827#3 -1073705827#2 -1073705827#1 1073705827#1" />
    </vehicle>
    <vehicle id="changfeng45_1_44" type="veh_passenger" depart="1.222" departPos="random_free" arrivalPos="32.36" departLane="best" departSpeed="max">
        <route edges="-1324938052 -1337777339 1073705821 -687003612#2 -489493511#1 -489493512 -489493508#4 -489493508#3 -489493508#2 -489493508#1 -489493508#0 177811577#1 103783038 1073705819 1324597558 1027408000#0 103783034#2 1337777327 -131415374 103783036 1073705831 1324597546 1118486327#0 1118486327#1 1231722480 1118486325#0 1118486325#1 1118486325#2 -1330117304#1 -1324597544 -240679753#1" />
    </vehicle>
    <vehicle id="changfeng45_1_45" type="veh_passenger" depart="1.250" departPos="random_free" arrivalPos="140.32" departLane="best" departSpeed="max">
        <route edges="1092087672#0 1073705831 1324597546 109691114#0 109691114#1 -177811577#1 -177811577#0 -1231937693 -1231937694 -1231937692 -1326094893 -1073705828#1 1073705828#1 1326094893 1329059764 1231937683 1118486328#0 1118486328#1 1118486327#0 1118486327#1" />
    </vehicle>
    <vehicle id="changfeng45_1_46" type="veh_passenger" depart="1.278" departPos="random_free" arrivalPos="37.57" departLane="best" departSpeed="max">
        <route edges="-1515352060 -225279017#1 -225279017#0 687003614#1 1167550617#0 142638060#1 142638060#2 -109691095 1330117305 1326094892 1326094893 1231937692 1231937694 1231937693 1073705827#0 1073705827#1 1073705827#2 1073705827#3 336885597 225372590#0 225372590#1 -225372591 -687003612#0 -1073705822 1324597560 1329059764 1118486325#0 1118486325#1 1118486325#2 44418748#0 -240679755 -142638060#1 -142638060#0 -1167550619#2 -687003614#0 -687003615 1270411373#1" />
    </vehicle>
    <vehicle id="changfeng45_1_47" type="veh_passenger" depart="1.306" departPos="random_free" arrivalPos="82.06" departLane="best" departSpeed="max">
        <route edges="-489493508#5 -489493508#4 -489493508#3 489493509 -1073705827#0 -372335514 1231722480 1118486325#0 1118486325#1 1118486325#2 44418748#0 -240679755 -142638060#1 177811579#0 177811579#1 177811579#2 -225277345#1 -225277351#0 1118486325#2 1330117305 1329059766 1231937683 1118486328#0 1118486328#1 1073705819 -97676932#1 -97676932#0 -1478728470#4 1478728470#4 44418751 97676932#1 1324597558 1092087672#0 1231722482 -58654498#1 141180079#0 141180079#1 -97676931 1073705832#0 -1073705832#0 97676931" />
    </vehicle>
    <vehicle id="changfeng45_1_48" type="veh_passenger" depart="1.333" departPos="random_free" arrivalPos="20.66" departLane="best" departSpeed="max">
        <route edges="177811579#1 177811579#2 -225277345#1 -225277351#0 1118486325#2 1330117305 1329059766 1231937683 1118486328#0 1118486328#1 1073705819 1324597558 1092087672#0 1231722482 -58654498#1 141180079#0 141180079#1 -97676931 1073705832#0 -1073705832#0 97676931 -141180079#1 -141180079#0 58654498#1 1118804255 1073705831 1324597546 1118486327#0 1118486327#1 1231722480 1118486325#0 1118486325#1 1118486325#2 44418748#0 -240679755 -142638060#1 -142638060#0 -1167550619#2 -687003614#0 687003614#0 687003614#1 1167550617#0 142638060#1 142638060#2 -109691095 1330117300 1238502000 1273359364 1118486326#0" />
    </vehicle>