[General]
cmdenv-express-mode = true
cmdenv-autoflush = true
cmdenv-status-frequency = 1s
**.cmdenv-log-level = info
repeat = 5

network = RSUExampleScenario

[Config ChangfengBase]
description = "A-DVLGS simulation on the Shanghai Changfeng northwest 2.0x2.0 km map"

sim-time-limit = 100s
seed-set = ${runnumber}

**.scalar-recording = true
**.vector-recording = true
output-scalar-file = results/${configname}-${runnumber}.sca
output-vector-file = results/${configname}-${runnumber}.vec

*.playgroundSizeX = 2300m
*.playgroundSizeY = 2300m
*.playgroundSizeZ = 50m

*.annotations.draw = true

*.manager.updateInterval = 0.1s
*.manager.host = "localhost"
*.manager.port = 9999
*.manager.autoShutdown = true
*.manager.trafficLightModuleType = ""

*.rsu[0].mobility.x = 350
*.rsu[0].mobility.y = 350
*.rsu[1].mobility.x = 850
*.rsu[1].mobility.y = 350
*.rsu[2].mobility.x = 1350
*.rsu[2].mobility.y = 350
*.rsu[3].mobility.x = 1850
*.rsu[3].mobility.y = 350
*.rsu[4].mobility.x = 350
*.rsu[4].mobility.y = 850
*.rsu[5].mobility.x = 850
*.rsu[5].mobility.y = 850
*.rsu[6].mobility.x = 1350
*.rsu[6].mobility.y = 850
*.rsu[7].mobility.x = 1850
*.rsu[7].mobility.y = 850
*.rsu[8].mobility.x = 350
*.rsu[8].mobility.y = 1350
*.rsu[9].mobility.x = 850
*.rsu[9].mobility.y = 1350
*.rsu[10].mobility.x = 1350
*.rsu[10].mobility.y = 1350
*.rsu[11].mobility.x = 1850
*.rsu[11].mobility.y = 1350
*.rsu[12].mobility.x = 350
*.rsu[12].mobility.y = 1850
*.rsu[13].mobility.x = 850
*.rsu[13].mobility.y = 1850
*.rsu[14].mobility.x = 1350
*.rsu[14].mobility.y = 1850
*.rsu[15].mobility.x = 1850
*.rsu[15].mobility.y = 1850
*.rsu[*].mobility.z = 3
*.rsu[*].applType = "org.advlgs.CryptoRSU11p"
*.rsu[*].appl.serviceDomain = "SPS:changfeng-northwest"
*.rsu[*].appl.repeatMessages = false
*.rsu[*].appl.headerLength = 80 bit
*.rsu[*].appl.dataLengthBits = 1024 bit
*.rsu[*].appl.signedMessageBytes = 128B
*.rsu[*].appl.serviceRequestTtl = 1s
*.rsu[*].appl.enableBatchVerification = true
*.rsu[*].appl.batchMaxSize = 0  # unlimited inside each 20 ms arrival window
*.rsu[*].appl.batchWindow = 0.02s
*.rsu[*].appl.useFixedCryptoTiming = true
*.rsu[*].appl.skipCryptoComputation = true
*.rsu[*].appl.sendBeacons = false
*.rsu[*].appl.dataOnSch = false
*.rsu[*].appl.beaconInterval = 1s
*.rsu[*].appl.beaconUserPriority = 7
*.rsu[*].appl.dataUserPriority = 5
*.rsu[*].nic.phy80211p.antennaOffsetZ = 0 m

*.connectionManager.sendDirect = true
*.connectionManager.maxInterfDist = 300m
*.connectionManager.drawMaxIntfDist = false
*.**.nic.mac1609_4.useServiceChannel = false
*.**.nic.mac1609_4.txPower = 20mW
*.**.nic.mac1609_4.bitrate = 6Mbps
*.**.nic.phy80211p.minPowerLevel = -110dBm
*.**.nic.phy80211p.useNoiseFloor = true
*.**.nic.phy80211p.noiseFloor = -98dBm
*.**.nic.phy80211p.decider = xmldoc("config.xml")
*.**.nic.phy80211p.analogueModels = xmldoc("config.xml")
*.**.nic.phy80211p.usePropagationDelay = true
*.**.nic.phy80211p.antenna = xmldoc("antenna.xml", "/root/Antenna[@id='monopole']")
*.node[*].nic.phy80211p.antennaOffsetY = 0 m
*.node[*].nic.phy80211p.antennaOffsetZ = 1.895 m

*.node[*].applType = "org.advlgs.CryptoDemo11p"
*.node[*].appl.serviceDomain = "SPS:changfeng-northwest"
*.node[*].appl.experimentMode = true
*.node[*].appl.announcementProbability = 1.0
*.node[*].appl.announcementInterval = 0.3s
*.node[*].appl.announcementStopTime = 99.5s
*.node[*].appl.fixedMessageBytes = 0B
*.node[*].appl.headerLength = 80 bit
*.node[*].appl.dataLengthBits = 1024 bit
*.node[*].appl.signedMessageBytes = 128B
*.node[*].appl.useFixedCryptoTiming = true
*.node[*].appl.skipCryptoComputation = true
*.node[*].appl.sendBeacons = false
*.node[*].appl.dataOnSch = false
*.node[*].appl.beaconInterval = 1s

*.node[*].veinsmobility.x = 0
*.node[*].veinsmobility.y = 0
*.node[*].veinsmobility.z = 0
*.node[*].veinsmobility.setHostSpeed = false


[Config ADVLGSBase]
extends = ChangfengBase
*.node[*].appl.cryptoScheme = "A-DVLGS"
*.rsu[*].appl.cryptoScheme = "A-DVLGS"
*.node[*].appl.fixedSignDelay = 0.009354059s
*.node[*].appl.fixedVerifyDelay = 0.012962006s
*.rsu[*].appl.fixedVerifyDelay = 0.012962006s

*.rsu[*].appl.fixedBatchVerifyDelayPerItem = 0s
*.rsu[*].appl.fixedBatchVerifyDelayBySize = "2:22.027156ms,3:29.600752ms,4:37.354594ms,5:45.163510ms,6:52.978918ms,7:60.440226ms,8:67.939923ms,9:77.860591ms,10:83.794047ms,11:94.519844ms,12:99.176086ms,13:106.781596ms,14:114.415620ms,15:126.985832ms,16:129.987362ms"


[Config BBSBase]
extends = ChangfengBase
*.node[*].appl.cryptoScheme = "BBS"
*.rsu[*].appl.cryptoScheme = "BBS"
*.node[*].appl.fixedSignDelay = 0.010505589s
*.node[*].appl.fixedVerifyDelay = 0.015034069s
*.rsu[*].appl.fixedVerifyDelay = 0.015034069s


[Config CLGSBase]
extends = ChangfengBase
*.node[*].appl.cryptoScheme = "CLGS"
*.rsu[*].appl.cryptoScheme = "CLGS"
*.node[*].appl.fixedSignDelay = 0.011342214s
*.node[*].appl.fixedVerifyDelay = 0.015390718s
*.rsu[*].appl.fixedVerifyDelay = 0.015390718s


[Config MLGSBase]
extends = ChangfengBase
*.node[*].appl.cryptoScheme = "MLGS"
*.rsu[*].appl.cryptoScheme = "MLGS"
*.node[*].appl.fixedSignDelay = 0.015716830s
*.node[*].appl.fixedVerifyDelay = 0.015133717s
*.rsu[*].appl.fixedVerifyDelay = 0.015133717s


[Config ERCABase]
extends = ChangfengBase
*.node[*].appl.cryptoScheme = "ERCA"
*.rsu[*].appl.cryptoScheme = "ERCA"
*.node[*].appl.fixedSignDelay = 0.017648287s
*.node[*].appl.fixedVerifyDelay = 0.019896913s
*.rsu[*].appl.fixedVerifyDelay = 0.019896913s


[Config ADVLGS_CHANGFENG_D5_F1_R0]
extends = ADVLGSBase
description = "A-DVLGS on Changfeng northwest density 5 vehicles/km2, request frequency 1 msg/s/vehicle, independent run 0"
*.node[*].appl.announcementInterval = 1s
*.manager.launchConfig = xmldoc("changfeng_d5_r0.launchd.xml")


[Config ADVLGS_CHANGFENG_D5_F1_R1]
extends = ADVLGSBase
description = "A-DVLGS on Changfeng northwest density 5 vehicles/km2, request frequency 1 msg/s/vehicle, independent run 1"
*.node[*].appl.announcementInterval = 1s
*.manager.launchConfig = xmldoc("changfeng_d5_r1.launchd.xml")


[Config ADVLGS_CHANGFENG_D5_F1_R2]
extends = ADVLGSBase
description = "A-DVLGS on Changfeng northwest density 5 vehicles/km2, request frequency 1 msg/s/vehicle, independent run 2"
*.node[*].appl.announcementInterval = 1s
*.manager.launchConfig = xmldoc("changfeng_d5_r2.launchd.xml")


[Config ADVLGS_CHANGFENG_D5_F1_R3]
extends = ADVLGSBase
description = "A-DVLGS on Changfeng northwest density 5 vehicles/km2, request frequency 1 msg/s/vehicle, independent run 3"
*.node[*].appl.announcementInterval = 1s
*.manager.launchConfig = xmldoc("changfeng_d5_r3.launchd.xml")


[Config ADVLGS_CHANGFENG_D5_F1_R4]
extends = ADVLGSBase
description = "A-DVLGS on Changfeng northwest density 5 vehicles/km2, request frequency 1 msg/s/vehicle, independent run 4"
*.node[*].appl.announcementInterval = 1s
*.manager.launchConfig = xmldoc("changfeng_d5_r4.launchd.xml")


[Config ADVLGS_CHANGFENG_D10_F1_R0]
extends = ADVLGSBase
description = "A-DVLGS on Changfeng northwest density 10 vehicles/km2, request frequency 1 msg/s/vehicle, independent run 0"
*.node[*].appl.announcementInterval = 1s
*.manager.launchConfig = xmldoc("changfeng_d10_r0.launchd.xml")


[Config ADVLGS_CHANGFENG_D10_F1_R1]
extends = ADVLGSBase
description = "A-DVLGS on Changfeng northwest density 10 vehicles/km2, request frequency 1 msg/s/vehicle, independent run 1"
*.node[*].appl.announcementInterval = 1s
*.manager.launchConfig = xmldoc("changfeng_d10_r1.launchd.xml")


[Config ADVLGS_CHANGFENG_D10_F1_R2]
extends = ADVLGSBase
description = "A-DVLGS on Changfeng northwest density 10 vehicles/km2, request frequency 1 msg/s/vehicle, independent run 2"
*.node[*].appl.announcementInterval = 1s
*.manager.launchConfig = xmldoc("changfeng_d10_r2.launchd.xml")


[Config ADVLGS_CHANGFENG_D10_F1_R3]
extends = ADVLGSBase
description = "A-DVLGS on Changfeng northwest density 10 vehicles/km2, request frequency 1 msg/s/vehicle, independent run 3"
*.node[*].appl.announcementInterval = 1s
*.manager.launchConfig = xmldoc("changfeng_d10_r3.launchd.xml")


[Config ADVLGS_CHANGFENG_D10_F1_R4]
extends = ADVLGSBase
description = "A-DVLGS on Changfeng northwest density 10 vehicles/km2, request frequency 1 msg/s/vehicle, independent run 4"
*.node[*].appl.announcementInterval = 1s
*.manager.launchConfig = xmldoc("changfeng_d10_r4.launchd.xml")


[Config ADVLGS_CHANGFENG_D15_F1_R0]
extends = ADVLGSBase
description = "A-DVLGS on Changfeng northwest density 15 vehicles/km2, request frequency 1 msg/s/vehicle, independent run 0"
*.node[*].appl.announcementInterval = 1s
*.manager.launchConfig = xmldoc("changfeng_d15_r0.launchd.xml")


[Config ADVLGS_CHANGFENG_D15_F1_R1]
extends = ADVLGSBase
description = "A-DVLGS on Changfeng northwest density 15 vehicles/km2, request frequency 1 msg/s/vehicle, independent run 1"
*.node[*].appl.announcementInterval = 1s
*.manager.launchConfig = xmldoc("changfeng_d15_r1.launchd.xml")


[Config ADVLGS_CHANGFENG_D15_F1_R2]
extends = ADVLGSBase
description = "A-DVLGS on Changfeng northwest density 15 vehicles/km2, request frequency 1 msg/s/vehicle, independent run 2"
*.node[*].appl.announcementInterval = 1s
*.manager.launchConfig = xmldoc("changfeng_d15_r2.launchd.xml")


[Config ADVLGS_CHANGFENG_D15_F1_R3]
extends = ADVLGSBase
description = "A-DVLGS on Changfeng northwest density 15 vehicles/km2, request frequency 1 msg/s/vehicle, independent run 3"
*.node[*].appl.announcementInterval = 1s
*.manager.launchConfig = xmldoc("changfeng_d15_r3.launchd.xml")


[Config ADVLGS_CHANGFENG_D15_F1_R4]
extends = ADVLGSBase
description = "A-DVLGS on Changfeng northwest density 15 vehicles/km2, request frequency 1 msg/s/vehicle, independent run 4"
*.node[*].appl.announcementInterval = 1s
*.manager.launchConfig = xmldoc("changfeng_d15_r4.launchd.xml")


[Config ADVLGS_CHANGFENG_D20_F1_R0]
extends = ADVLGSBase
description = "A-DVLGS on Changfeng northwest density 20 vehicles/km2, request frequency 1 msg/s/vehicle, independent run 0"
*.node[*].appl.announcementInterval = 1s
*.manager.launchConfig = xmldoc("changfeng_d20_r0.launchd.xml")


[Config ADVLGS_CHANGFENG_D20_F1_R1]
extends = ADVLGSBase
description = "A-DVLGS on Changfeng northwest density 20 vehicles/km2, request frequency 1 msg/s/vehicle, independent run 1"
*.node[*].appl.announcementInterval = 1s
*.manager.launchConfig = xmldoc("changfeng_d20_r1.launchd.xml")


[Config ADVLGS_CHANGFENG_D20_F1_R2]
extends = ADVLGSBase
description = "A-DVLGS on Changfeng northwest density 20 vehicles/km2, request frequency 1 msg/s/vehicle, independent run 2"
*.node[*].appl.announcementInterval = 1s
*.manager.launchConfig = xmldoc("changfeng_d20_r2.launchd.xml")


[Config ADVLGS_CHANGFENG_D20_F1_R3]
extends = ADVLGSBase
description = "A-DVLGS on Changfeng northwest density 20 vehicles/km2, request frequency 1 msg/s/vehicle, independent run 3"
*.node[*].appl.announcementInterval = 1s
*.manager.launchConfig = xmldoc("changfeng_d20_r3.launchd.xml")


[Config ADVLGS_CHANGFENG_D20_F1_R4]
extends = ADVLGSBase
description = "A-DVLGS on Changfeng northwest density 20 vehicles/km2, request frequency 1 msg/s/vehicle, independent run 4"
*.node[*].appl.announcementInterval = 1s
*.manager.launchConfig = xmldoc("changfeng_d20_r4.launchd.xml")


[Config ADVLGS_CHANGFENG_D25_F1_R0]
extends = ADVLGSBase
description = "A-DVLGS on Changfeng northwest density 25 vehicles/km2, request frequency 1 msg/s/vehicle, independent run 0"
*.node[*].appl.announcementInterval = 1s
*.manager.launchConfig = xmldoc("changfeng_d25_r0.launchd.xml")


[Config ADVLGS_CHANGFENG_D25_F1_R1]
extends = ADVLGSBase
description = "A-DVLGS on Changfeng northwest density 25 vehicles/km2, request frequency 1 msg/s/vehicle, independent run 1"
*.node[*].appl.announcementInterval = 1s
*.manager.launchConfig = xmldoc("changfeng_d25_r1.launchd.xml")


[Config ADVLGS_CHANGFENG_D25_F1_R2]
extends = ADVLGSBase
description = "A-DVLGS on Changfeng northwest density 25 vehicles/km2, request frequency 1 msg/s/vehicle, independent run 2"
*.node[*].appl.announcementInterval = 1s
*.manager.launchConfig = xmldoc("changfeng_d25_r2.launchd.xml")


[Config ADVLGS_CHANGFENG_D25_F1_R3]
extends = ADVLGSBase
description = "A-DVLGS on Changfeng northwest density 25 vehicles/km2, request frequency 1 msg/s/vehicle, independent run 3"
*.node[*].appl.announcementInterval = 1s
*.manager.launchConfig = xmldoc("changfeng_d25_r3.launchd.xml")


[Config ADVLGS_CHANGFENG_D25_F1_R4]
extends = ADVLGSBase
description = "A-DVLGS on Changfeng northwest density 25 vehicles/km2, request frequency 1 msg/s/vehicle, independent run 4"
*.node[*].appl.announcementInterval = 1s
*.manager.launchConfig = xmldoc("changfeng_d25_r4.launchd.xml")


[Config ADVLGS_CHANGFENG_D30_F1_R0]
extends = ADVLGSBase
description = "A-DVLGS on Changfeng northwest density 30 vehicles/km2, request frequency 1 msg/s/vehicle, independent run 0"
*.node[*].appl.announcementInterval = 1s
*.manager.launchConfig = xmldoc("changfeng_d30_r0.launchd.xml")


[Config ADVLGS_CHANGFENG_D30_F1_R1]
extends = ADVLGSBase
description = "A-DVLGS on Changfeng northwest density 30 vehicles/km2, request frequency 1 msg/s/vehicle, independent run 1"
*.node[*].appl.announcementInterval = 1s
*.manager.launchConfig = xmldoc("changfeng_d30_r1.launchd.xml")


[Config ADVLGS_CHANGFENG_D30_F1_R2]
extends = ADVLGSBase
description = "A-DVLGS on Changfeng northwest density 30 vehicles/km2, request frequency 1 msg/s/vehicle, independent run 2"
*.node[*].appl.announcementInterval = 1s
*.manager.launchConfig = xmldoc("changfeng_d30_r2.launchd.xml")


[Config ADVLGS_CHANGFENG_D30_F1_R3]
extends = ADVLGSBase
description = "A-DVLGS on Changfeng northwest density 30 vehicles/km2, request frequency 1 msg/s/vehicle, independent run 3"
*.node[*].appl.announcementInterval = 1s
*.manager.launchConfig = xmldoc("changfeng_d30_r3.launchd.xml")


[Config ADVLGS_CHANGFENG_D30_F1_R4]
extends = ADVLGSBase
description = "A-DVLGS on Changfeng northwest density 30 vehicles/km2, request frequency 1 msg/s/vehicle, independent run 4"
*.node[*].appl.announcementInterval = 1s
*.manager.launchConfig = xmldoc("changfeng_d30_r4.launchd.xml")


[Config ADVLGS_CHANGFENG_D35_F1_R0]
extends = ADVLGSBase
description = "A-DVLGS on Changfeng northwest density 35 vehicles/km2, request frequency 1 msg/s/vehicle, independent run 0"
*.node[*].appl.announcementInterval = 1s
*.manager.launchConfig = xmldoc("changfeng_d35_r0.launchd.xml")


[Config ADVLGS_CHANGFENG_D35_F1_R1]
extends = ADVLGSBase
description = "A-DVLGS on Changfeng northwest density 35 vehicles/km2, request frequency 1 msg/s/vehicle, independent run 1"
*.node[*].appl.announcementInterval = 1s
*.manager.launchConfig = xmldoc("changfeng_d35_r1.launchd.xml")


[Config ADVLGS_CHANGFENG_D35_F1_R2]
extends = ADVLGSBase
description = "A-DVLGS on Changfeng northwest density 35 vehicles/km2, request frequency 1 msg/s/vehicle, independent run 2"
*.node[*].appl.announcementInterval = 1s
*.manager.launchConfig = xmldoc("changfeng_d35_r2.launchd.xml")


[Config ADVLGS_CHANGFENG_D35_F1_R3]
extends = ADVLGSBase
description = "A-DVLGS on Changfeng northwest density 35 vehicles/km2, request frequency 1 msg/s/vehicle, independent run 3"
*.node[*].appl.announcementInterval = 1s
*.manager.launchConfig = xmldoc("changfeng_d35_r3.launchd.xml")


[Config ADVLGS_CHANGFENG_D35_F1_R4]
extends = ADVLGSBase
description = "A-DVLGS on Changfeng northwest density 35 vehicles/km2, request frequency 1 msg/s/vehicle, independent run 4"
*.node[*].appl.announcementInterval = 1s
*.manager.launchConfig = xmldoc("changfeng_d35_r4.launchd.xml")


[Config ADVLGS_CHANGFENG_D40_F1_R0]
extends = ADVLGSBase
description = "A-DVLGS on Changfeng northwest density 40 vehicles/km2, request frequency 1 msg/s/vehicle, independent run 0"
*.node[*].appl.announcementInterval = 1s
*.manager.launchConfig = xmldoc("changfeng_d40_r0.launchd.xml")


[Config ADVLGS_CHANGFENG_D40_F1_R1]
extends = ADVLGSBase
description = "A-DVLGS on Changfeng northwest density 40 vehicles/km2, request frequency 1 msg/s/vehicle, independent run 1"
*.node[*].appl.announcementInterval = 1s
*.manager.launchConfig = xmldoc("changfeng_d40_r1.launchd.xml")


[Config ADVLGS_CHANGFENG_D40_F1_R2]
extends = ADVLGSBase
description = "A-DVLGS on Changfeng northwest density 40 vehicles/km2, request frequency 1 msg/s/vehicle, independent run 2"
*.node[*].appl.announcementInterval = 1s
*.manager.launchConfig = xmldoc("changfeng_d40_r2.launchd.xml")


[Config ADVLGS_CHANGFENG_D40_F1_R3]
extends = ADVLGSBase
description = "A-DVLGS on Changfeng northwest density 40 vehicles/km2, request frequency 1 msg/s/vehicle, independent run 3"
*.node[*].appl.announcementInterval = 1s
*.manager.launchConfig = xmldoc("changfeng_d40_r3.launchd.xml")


[Config ADVLGS_CHANGFENG_D40_F1_R4]
extends = ADVLGSBase
description = "A-DVLGS on Changfeng northwest density 40 vehicles/km2, request frequency 1 msg/s/vehicle, independent run 4"
*.node[*].appl.announcementInterval = 1s
*.manager.launchConfig = xmldoc("changfeng_d40_r4.launchd.xml")


[Config ADVLGS_CHANGFENG_D45_F1_R0]
extends = ADVLGSBase
description = "A-DVLGS on Changfeng northwest density 45 vehicles/km2, request frequency 1 msg/s/vehicle, independent run 0"
*.node[*].appl.announcementInterval = 1s
*.manager.launchConfig = xmldoc("changfeng_d45_r0.launchd.xml")


[Config ADVLGS_CHANGFENG_D45_F1_R1]
extends = ADVLGSBase
description = "A-DVLGS on Changfeng northwest density 45 vehicles/km2, request frequency 1 msg/s/vehicle, independent run 1"
*.node[*].appl.announcementInterval = 1s
*.manager.launchConfig = xmldoc("changfeng_d45_r1.launchd.xml")


[Config ADVLGS_CHANGFENG_D45_F1_R2]
extends = ADVLGSBase
description = "A-DVLGS on Changfeng northwest density 45 vehicles/km2, request frequency 1 msg/s/vehicle, independent run 2"
*.node[*].appl.announcementInterval = 1s
*.manager.launchConfig = xmldoc("changfeng_d45_r2.launchd.xml")


[Config ADVLGS_CHANGFENG_D45_F1_R3]
extends = ADVLGSBase
description = "A-DVLGS on Changfeng northwest density 45 vehicles/km2, request frequency 1 msg/s/vehicle, independent run 3"
*.node[*].appl.announcementInterval = 1s
*.manager.launchConfig = xmldoc("changfeng_d45_r3.launchd.xml")


[Config ADVLGS_CHANGFENG_D45_F1_R4]
extends = ADVLGSBase
description = "A-DVLGS on Changfeng northwest density 45 vehicles/km2, request frequency 1 msg/s/vehicle, independent run 4"
*.node[*].appl.announcementInterval = 1s
*.manager.launchConfig = xmldoc("changfeng_d45_r4.launchd.xml")


[Config ADVLGS_CHANGFENG_D50_F1_R0]
extends = ADVLGSBase
description = "A-DVLGS on Changfeng northwest density 50 vehicles/km2, request frequency 1 msg/s/vehicle, independent run 0"
*.node[*].appl.announcementInterval = 1s
*.manager.launchConfig = xmldoc("changfeng_d50_r0.launchd.xml")


[Config ADVLGS_CHANGFENG_D50_F1_R1]
extends = ADVLGSBase
description = "A-DVLGS on Changfeng northwest density 50 vehicles/km2, request frequency 1 msg/s/vehicle, independent run 1"
*.node[*].appl.announcementInterval = 1s
*.manager.launchConfig = xmldoc("changfeng_d50_r1.launchd.xml")


[Config ADVLGS_CHANGFENG_D50_F1_R2]
extends = ADVLGSBase
description = "A-DVLGS on Changfeng northwest density 50 vehicles/km2, request frequency 1 msg/s/vehicle, independent run 2"
*.node[*].appl.announcementInterval = 1s
*.manager.launchConfig = xmldoc("changfeng_d50_r2.launchd.xml")


[Config ADVLGS_CHANGFENG_D50_F1_R3]
extends = ADVLGSBase
description = "A-DVLGS on Changfeng northwest density 50 vehicles/km2, request frequency 1 msg/s/vehicle, independent run 3"
*.node[*].appl.announcementInterval = 1s
*.manager.launchConfig = xmldoc("changfeng_d50_r3.launchd.xml")


[Config ADVLGS_CHANGFENG_D50_F1_R4]
extends = ADVLGSBase
description = "A-DVLGS on Changfeng northwest density 50 vehicles/km2, request frequency 1 msg/s/vehicle, independent run 4"
*.node[*].appl.announcementInterval = 1s
*.manager.launchConfig = xmldoc("changfeng_d50_r4.launchd.xml")


[Config ADVLGS_CHANGFENG_D5_F2_R0]
extends = ADVLGSBase
description = "A-DVLGS on Changfeng northwest density 5 vehicles/km2, request frequency 2 msg/s/vehicle, independent run 0"
*.node[*].appl.announcementInterval = 0.5s
*.manager.launchConfig = xmldoc("changfeng_d5_r0.launchd.xml")


[Config ADVLGS_CHANGFENG_D5_F2_R1]
extends = ADVLGSBase
description = "A-DVLGS on Changfeng northwest density 5 vehicles/km2, request frequency 2 msg/s/vehicle, independent run 1"
*.node[*].appl.announcementInterval = 0.5s
*.manager.launchConfig = xmldoc("changfeng_d5_r1.launchd.xml")


[Config ADVLGS_CHANGFENG_D5_F2_R2]
extends = ADVLGSBase
description = "A-DVLGS on Changfeng northwest density 5 vehicles/km2, request frequency 2 msg/s/vehicle, independent run 2"
*.node[*].appl.announcementInterval = 0.5s
*.manager.launchConfig = xmldoc("changfeng_d5_r2.launchd.xml")


[Config ADVLGS_CHANGFENG_D5_F2_R3]
extends = ADVLGSBase
description = "A-DVLGS on Changfeng northwest density 5 vehicles/km2, request frequency 2 msg/s/vehicle, independent run 3"
*.node[*].appl.announcementInterval = 0.5s
*.manager.launchConfig = xmldoc("changfeng_d5_r3.launchd.xml")


[Config ADVLGS_CHANGFENG_D5_F2_R4]
extends = ADVLGSBase
description = "A-DVLGS on Changfeng northwest density 5 vehicles/km2, request frequency 2 msg/s/vehicle, independent run 4"
*.node[*].appl.announcementInterval = 0.5s
*.manager.launchConfig = xmldoc("changfeng_d5_r4.launchd.xml")


[Config ADVLGS_CHANGFENG_D10_F2_R0]
extends = ADVLGSBase
description = "A-DVLGS on Changfeng northwest density 10 vehicles/km2, request frequency 2 msg/s/vehicle, independent run 0"
*.node[*].appl.announcementInterval = 0.5s
*.manager.launchConfig = xmldoc("changfeng_d10_r0.launchd.xml")


[Config ADVLGS_CHANGFENG_D10_F2_R1]
extends = ADVLGSBase
description = "A-DVLGS on Changfeng northwest density 10 vehicles/km2, request frequency 2 msg/s/vehicle, independent run 1"
*.node[*].appl.announcementInterval = 0.5s
*.manager.launchConfig = xmldoc("changfeng_d10_r1.launchd.xml")


[Config ADVLGS_CHANGFENG_D10_F2_R2]
extends = ADVLGSBase
description = "A-DVLGS on Changfeng northwest density 10 vehicles/km2, request frequency 2 msg/s/vehicle, independent run 2"
*.node[*].appl.announcementInterval = 0.5s
*.manager.launchConfig = xmldoc("changfeng_d10_r2.launchd.xml")


[Config ADVLGS_CHANGFENG_D10_F2_R3]
extends = ADVLGSBase
description = "A-DVLGS on Changfeng northwest density 10 vehicles/km2, request frequency 2 msg/s/vehicle, independent run 3"
*.node[*].appl.announcementInterval = 0.5s
*.manager.launchConfig = xmldoc("changfeng_d10_r3.launchd.xml")


[Config ADVLGS_CHANGFENG_D10_F2_R4]
extends = ADVLGSBase
description = "A-DVLGS on Changfeng northwest density 10 vehicles/km2, request frequency 2 msg/s/vehicle, independent run 4"
*.node[*].appl.announcementInterval = 0.5s
*.manager.launchConfig = xmldoc("changfeng_d10_r4.launchd.xml")


[Config ADVLGS_CHANGFENG_D15_F2_R0]
extends = ADVLGSBase
description = "A-DVLGS on Changfeng northwest density 15 vehicles/km2, request frequency 2 msg/s/vehicle, independent run 0"
*.node[*].appl.announcementInterval = 0.5s
*.manager.launchConfig = xmldoc("changfeng_d15_r0.launchd.xml")


[Config ADVLGS_CHANGFENG_D15_F2_R1]
extends = ADVLGSBase
description = "A-DVLGS on Changfeng northwest density 15 vehicles/km2, request frequency 2 msg/s/vehicle, independent run 1"
*.node[*].appl.announcementInterval = 0.5s
*.manager.launchConfig = xmldoc("changfeng_d15_r1.launchd.xml")


[Config ADVLGS_CHANGFENG_D15_F2_R2]
extends = ADVLGSBase
description = "A-DVLGS on Changfeng northwest density 15 vehicles/km2, request frequency 2 msg/s/vehicle, independent run 2"
*.node[*].appl.announcementInterval = 0.5s
*.manager.launchConfig = xmldoc("changfeng_d15_r2.launchd.xml")


[Config ADVLGS_CHANGFENG_D15_F2_R3]
extends = ADVLGSBase
description = "A-DVLGS on Changfeng northwest density 15 vehicles/km2, request frequency 2 msg/s/vehicle, independent run 3"
*.node[*].appl.announcementInterval = 0.5s
*.manager.launchConfig = xmldoc("changfeng_d15_r3.launchd.xml")


[Config ADVLGS_CHANGFENG_D15_F2_R4]
extends = ADVLGSBase
description = "A-DVLGS on Changfeng northwest density 15 vehicles/km2, request frequency 2 msg/s/vehicle, independent run 4"
*.node[*].appl.announcementInterval = 0.5s
*.manager.launchConfig = xmldoc("changfeng_d15_r4.launchd.xml")


[Config ADVLGS_CHANGFENG_D20_F2_R0]
extends = ADVLGSBase
description = "A-DVLGS on Changfeng northwest density 20 vehicles/km2, request frequency 2 msg/s/vehicle, independent run 0"
*.node[*].appl.announcementInterval = 0.5s
*.manager.launchConfig = xmldoc("changfeng_d20_r0.launchd.xml")


[Config ADVLGS_CHANGFENG_D20_F2_R1]
extends = ADVLGSBase
description = "A-DVLGS on Changfeng northwest density 20 vehicles/km2, request frequency 2 msg/s/vehicle, independent run 1"
*.node[*].appl.announcementInterval = 0.5s
*.manager.launchConfig = xmldoc("changfeng_d20_r1.launchd.xml")


[Config ADVLGS_CHANGFENG_D20_F2_R2]
extends = ADVLGSBase
description = "A-DVLGS on Changfeng northwest density 20 vehicles/km2, request frequency 2 msg/s/vehicle, independent run 2"
*.node[*].appl.announcementInterval = 0.5s
*.manager.launchConfig = xmldoc("changfeng_d20_r2.launchd.xml")


[Config ADVLGS_CHANGFENG_D20_F2_R3]
extends = ADVLGSBase
description = "A-DVLGS on Changfeng northwest density 20 vehicles/km2, request frequency 2 msg/s/vehicle, independent run 3"
*.node[*].appl.announcementInterval = 0.5s
*.manager.launchConfig = xmldoc("changfeng_d20_r3.launchd.xml")


[Config ADVLGS_CHANGFENG_D20_F2_R4]
extends = ADVLGSBase
description = "A-DVLGS on Changfeng northwest density 20 vehicles/km2, request frequency 2 msg/s/vehicle, independent run 4"
*.node[*].appl.announcementInterval = 0.5s
*.manager.launchConfig = xmldoc("changfeng_d20_r4.launchd.xml")


[Config ADVLGS_CHANGFENG_D25_F2_R0]
extends = ADVLGSBase
description = "A-DVLGS on Changfeng northwest density 25 vehicles/km2, request frequency 2 msg/s/vehicle, independent run 0"
*.node[*].appl.announcementInterval = 0.5s
*.manager.launchConfig = xmldoc("changfeng_d25_r0.launchd.xml")


[Config ADVLGS_CHANGFENG_D25_F2_R1]
extends = ADVLGSBase
description = "A-DVLGS on Changfeng northwest density 25 vehicles/km2, request frequency 2 msg/s/vehicle, independent run 1"
*.node[*].appl.announcementInterval = 0.5s
*.manager.launchConfig = xmldoc("changfeng_d25_r1.launchd.xml")


[Config ADVLGS_CHANGFENG_D25_F2_R2]
extends = ADVLGSBase
description = "A-DVLGS on Changfeng northwest density 25 vehicles/km2, request frequency 2 msg/s/vehicle, independent run 2"
*.node[*].appl.announcementInterval = 0.5s
*.manager.launchConfig = xmldoc("changfeng_d25_r2.launchd.xml")


[Config ADVLGS_CHANGFENG_D25_F2_R3]
extends = ADVLGSBase
description = "A-DVLGS on Changfeng northwest density 25 vehicles/km2, request frequency 2 msg/s/vehicle, independent run 3"
*.node[*].appl.announcementInterval = 0.5s
*.manager.launchConfig = xmldoc("changfeng_d25_r3.launchd.xml")


[Config ADVLGS_CHANGFENG_D25_F2_R4]
extends = ADVLGSBase
description = "A-DVLGS on Changfeng northwest density 25 vehicles/km2, request frequency 2 msg/s/vehicle, independent run 4"
*.node[*].appl.announcementInterval = 0.5s
*.manager.launchConfig = xmldoc("changfeng_d25_r4.launchd.xml")


[Config ADVLGS_CHANGFENG_D30_F2_R0]
extends = ADVLGSBase
description = "A-DVLGS on Changfeng northwest density 30 vehicles/km2, request frequency 2 msg/s/vehicle, independent run 0"
*.node[*].appl.announcementInterval = 0.5s
*.manager.launchConfig = xmldoc("changfeng_d30_r0.launchd.xml")


[Config ADVLGS_CHANGFENG_D30_F2_R1]
extends = ADVLGSBase
description = "A-DVLGS on Changfeng northwest density 30 vehicles/km2, request frequency 2 msg/s/vehicle, independent run 1"
*.node[*].appl.announcementInterval = 0.5s
*.manager.launchConfig = xmldoc("changfeng_d30_r1.launchd.xml")


[Config ADVLGS_CHANGFENG_D30_F2_R2]
extends = ADVLGSBase
description = "A-DVLGS on Changfeng northwest density 30 vehicles/km2, request frequency 2 msg/s/vehicle, independent run 2"
*.node[*].appl.announcementInterval = 0.5s
*.manager.launchConfig = xmldoc("changfeng_d30_r2.launchd.xml")


[Config ADVLGS_CHANGFENG_D30_F2_R3]
extends = ADVLGSBase
description = "A-DVLGS on Changfeng northwest density 30 vehicles/km2, request frequency 2 msg/s/vehicle, independent run 3"
*.node[*].appl.announcementInterval = 0.5s
*.manager.launchConfig = xmldoc("changfeng_d30_r3.launchd.xml")


[Config ADVLGS_CHANGFENG_D30_F2_R4]
extends = ADVLGSBase
description = "A-DVLGS on Changfeng northwest density 30 vehicles/km2, request frequency 2 msg/s/vehicle, independent run 4"
*.node[*].appl.announcementInterval = 0.5s
*.manager.launchConfig = xmldoc("changfeng_d30_r4.launchd.xml")


[Config ADVLGS_CHANGFENG_D35_F2_R0]
extends = ADVLGSBase
description = "A-DVLGS on Changfeng northwest density 35 vehicles/km2, request frequency 2 msg/s/vehicle, independent run 0"
*.node[*].appl.announcementInterval = 0.5s
*.manager.launchConfig = xmldoc("changfeng_d35_r0.launchd.xml")


[Config ADVLGS_CHANGFENG_D35_F2_R1]
extends = ADVLGSBase
description = "A-DVLGS on Changfeng northwest density 35 vehicles/km2, request frequency 2 msg/s/vehicle, independent run 1"
*.node[*].appl.announcementInterval = 0.5s
*.manager.launchConfig = xmldoc("changfeng_d35_r1.launchd.xml")


[Config ADVLGS_CHANGFENG_D35_F2_R2]
extends = ADVLGSBase
description = "A-DVLGS on Changfeng northwest density 35 vehicles/km2, request frequency 2 msg/s/vehicle, independent run 2"
*.node[*].appl.announcementInterval = 0.5s
*.manager.launchConfig = xmldoc("changfeng_d35_r2.launchd.xml")


[Config ADVLGS_CHANGFENG_D35_F2_R3]
extends = ADVLGSBase
description = "A-DVLGS on Changfeng northwest density 35 vehicles/km2, request frequency 2 msg/s/vehicle, independent run 3"
*.node[*].appl.announcementInterval = 0.5s
*.manager.launchConfig = xmldoc("changfeng_d35_r3.launchd.xml")


[Config ADVLGS_CHANGFENG_D35_F2_R4]
extends = ADVLGSBase
description = "A-DVLGS on Changfeng northwest density 35 vehicles/km2, request frequency 2 msg/s/vehicle, independent run 4"
*.node[*].appl.announcementInterval = 0.5s